
     RDKit          3D

 50 53  0  0  0  0  0  0  0  0999 V2000
   -5.6996    2.2388    0.0610 C   0  0  0  0  0  0  0  0  0  0  0  0
   -4.6399    1.3116    0.1494 O   0  0  0  0  0  0  0  0  0  0  0  0
   -4.1102    1.0793   -1.1388 C   0  0  0  0  0  0  0  0  0  0  0  0
   -2.9296    0.1485   -1.0221 C   0  0  0  0  0  0  0  0  0  0  0  0
   -3.0777   -1.1903   -1.4131 C   0  0  0  0  0  0  0  0  0  0  0  0
   -2.0133   -2.0928   -1.3064 C   0  0  0  0  0  0  0  0  0  0  0  0
   -2.1825   -3.4281   -1.7073 C   0  0  0  0  0  0  0  0  0  0  0  0
   -1.1263   -4.3339   -1.6023 C   0  0  0  0  0  0  0  0  0  0  0  0
    0.1053   -3.9179   -1.0967 C   0  0  0  0  0  0  0  0  0  0  0  0
    0.2893   -2.5933   -0.6929 C   0  0  0  0  0  0  0  0  0  0  0  0
   -0.7658   -1.6606   -0.7928 C   0  0  0  0  0  0  0  0  0  0  0  0
   -0.6122   -0.3128   -0.3879 C   0  0  0  0  0  0  0  0  0  0  0  0
    0.6770    0.1847    0.1585 C   0  0  0  0  0  0  0  0  0  0  0  0
    1.6901    0.6136   -0.7302 C   0  0  0  0  0  0  0  0  0  0  0  0
    1.5024    0.5696   -2.1160 O   0  0  0  0  0  0  0  0  0  0  0  0
    2.9126    1.0961   -0.2285 C   0  0  0  0  0  0  0  0  0  0  0  0
    4.0077    1.5233   -1.1695 C   0  0  0  0  0  0  0  0  0  0  0  0
    4.6562    0.3728   -1.6684 O   0  0  0  0  0  0  0  0  0  0  0  0
    5.6367    0.7573   -2.6055 C   0  0  0  0  0  0  0  0  0  0  0  0
    3.1348    1.1275    1.1539 C   0  0  0  0  0  0  0  0  0  0  0  0
    2.1413    0.7118    2.0471 C   0  0  0  0  0  0  0  0  0  0  0  0
    2.3751    0.7672    3.4305 C   0  0  0  0  0  0  0  0  0  0  0  0
    1.3881    0.3583    4.3272 C   0  0  0  0  0  0  0  0  0  0  0  0
    0.1634   -0.1117    3.8553 C   0  0  0  0  0  0  0  0  0  0  0  0
   -0.0828   -0.1774    2.4832 C   0  0  0  0  0  0  0  0  0  0  0  0
    0.8993    0.2367    1.5569 C   0  0  0  0  0  0  0  0  0  0  0  0
   -1.6937    0.5846   -0.4906 C   0  0  0  0  0  0  0  0  0  0  0  0
   -1.5119    1.9009   -0.0501 O   0  0  0  0  0  0  0  0  0  0  0  0
   -6.5124    1.8672   -0.6032 H   0  0  0  0  0  0  0  0  0  0  0  0
   -6.1326    2.3749    1.0718 H   0  0  0  0  0  0  0  0  0  0  0  0
   -5.3353    3.2315   -0.2837 H   0  0  0  0  0  0  0  0  0  0  0  0
   -4.8871    0.6283   -1.7993 H   0  0  0  0  0  0  0  0  0  0  0  0
   -3.7782    2.0257   -1.6225 H   0  0  0  0  0  0  0  0  0  0  0  0
   -4.0303   -1.5327   -1.8032 H   0  0  0  0  0  0  0  0  0  0  0  0
   -3.1319   -3.7709   -2.1022 H   0  0  0  0  0  0  0  0  0  0  0  0
   -1.2635   -5.3615   -1.9130 H   0  0  0  0  0  0  0  0  0  0  0  0
    0.9206   -4.6251   -1.0162 H   0  0  0  0  0  0  0  0  0  0  0  0
    1.2583   -2.3092   -0.3023 H   0  0  0  0  0  0  0  0  0  0  0  0
    0.6458    0.2501   -2.5522 H   0  0  0  0  0  0  0  0  0  0  0  0
    3.5576    2.1199   -1.9956 H   0  0  0  0  0  0  0  0  0  0  0  0
    4.7318    2.1798   -0.6346 H   0  0  0  0  0  0  0  0  0  0  0  0
    5.1754    1.2557   -3.4889 H   0  0  0  0  0  0  0  0  0  0  0  0
    6.1549   -0.1544   -2.9681 H   0  0  0  0  0  0  0  0  0  0  0  0
    6.4052    1.4138   -2.1405 H   0  0  0  0  0  0  0  0  0  0  0  0
    4.0868    1.4806    1.5343 H   0  0  0  0  0  0  0  0  0  0  0  0
    3.3197    1.1318    3.8182 H   0  0  0  0  0  0  0  0  0  0  0  0
    1.5715    0.4115    5.3932 H   0  0  0  0  0  0  0  0  0  0  0  0
   -0.5993   -0.4263    4.5558 H   0  0  0  0  0  0  0  0  0  0  0  0
   -1.0444   -0.5509    2.1578 H   0  0  0  0  0  0  0  0  0  0  0  0
   -2.2460    2.5961   -0.0457 H   0  0  0  0  0  0  0  0  0  0  0  0
  1  2  1  0
  2  3  1  0
  3  4  1  0
  4  5  2  0
  5  6  1  0
  6  7  2  0
  7  8  1  0
  8  9  2  0
  9 10  1  0
 10 11  2  0
 11 12  1  0
 12 13  1  0
 13 14  2  0
 14 15  1  0
 14 16  1  0
 16 17  1  0
 17 18  1  0
 18 19  1  0
 16 20  2  0
 20 21  1  0
 21 22  2  0
 22 23  1  0
 23 24  2  0
 24 25  1  0
 25 26  2  0
 12 27  2  0
 27 28  1  0
 27  4  1  0
 11  6  1  0
 26 13  1  0
 26 21  1  0
  1 29  1  0
  1 30  1  0
  1 31  1  0
  3 32  1  0
  3 33  1  0
  5 34  1  0
  7 35  1  0
  8 36  1  0
  9 37  1  0
 10 38  1  0
 15 39  1  0
 17 40  1  0
 17 41  1  0
 19 42  1  0
 19 43  1  0
 19 44  1  0
 20 45  1  0
 22 46  1  0
 23 47  1  0
 24 48  1  0
 25 49  1  0
 28 50  1  0
M  END
