
     RDKit          3D

 40 43  0  0  0  0  0  0  0  0999 V2000
    4.6700    2.2940   -0.4772 C   0  0  0  0  0  0  0  0  0  0  0  0
    3.3320    1.9145   -0.1719 O   0  0  0  0  0  0  0  0  0  0  0  0
    2.8623    0.5924   -0.1754 C   0  0  0  0  0  0  0  0  0  0  0  0
    3.6910   -0.4993   -0.4873 C   0  0  0  0  0  0  0  0  0  0  0  0
    3.1804   -1.7980   -0.4782 C   0  0  0  0  0  0  0  0  0  0  0  0
    1.8350   -2.0293   -0.1588 C   0  0  0  0  0  0  0  0  0  0  0  0
    1.3294   -3.3360   -0.1523 C   0  0  0  0  0  0  0  0  0  0  0  0
   -0.0077   -3.5717    0.1631 C   0  0  0  0  0  0  0  0  0  0  0  0
   -0.8612   -2.5082    0.4762 C   0  0  0  0  0  0  0  0  0  0  0  0
   -2.1983   -2.7577    0.7870 O   0  0  0  0  0  0  0  0  0  0  0  0
   -0.3738   -1.1881    0.4766 C   0  0  0  0  0  0  0  0  0  0  0  0
   -1.3069   -0.0819    0.8075 C   0  0  0  0  0  0  0  0  0  0  0  0
   -1.5029    0.2841    2.1586 C   0  0  0  0  0  0  0  0  0  0  0  0
   -0.8393   -0.3665    3.2016 O   0  0  0  0  0  0  0  0  0  0  0  0
   -2.3770    1.3245    2.4806 C   0  0  0  0  0  0  0  0  0  0  0  0
   -3.0609    2.0145    1.4820 C   0  0  0  0  0  0  0  0  0  0  0  0
   -2.8813    1.6724    0.1363 C   0  0  0  0  0  0  0  0  0  0  0  0
   -3.5719    2.3733   -0.8651 C   0  0  0  0  0  0  0  0  0  0  0  0
   -3.3963    2.0369   -2.2081 C   0  0  0  0  0  0  0  0  0  0  0  0
   -2.5332    1.0005   -2.5637 C   0  0  0  0  0  0  0  0  0  0  0  0
   -1.8389    0.2928   -1.5796 C   0  0  0  0  0  0  0  0  0  0  0  0
   -2.0001    0.6165   -0.2149 C   0  0  0  0  0  0  0  0  0  0  0  0
    0.9852   -0.9394    0.1574 C   0  0  0  0  0  0  0  0  0  0  0  0
    1.5191    0.3661    0.1446 C   0  0  0  0  0  0  0  0  0  0  0  0
    4.9261    1.9897   -1.5140 H   0  0  0  0  0  0  0  0  0  0  0  0
    4.7610    3.3966   -0.3980 H   0  0  0  0  0  0  0  0  0  0  0  0
    5.3735    1.8265    0.2437 H   0  0  0  0  0  0  0  0  0  0  0  0
    4.7329   -0.3552   -0.7383 H   0  0  0  0  0  0  0  0  0  0  0  0
    3.8391   -2.6234   -0.7219 H   0  0  0  0  0  0  0  0  0  0  0  0
    1.9693   -4.1771   -0.3921 H   0  0  0  0  0  0  0  0  0  0  0  0
   -0.3827   -4.5874    0.1629 H   0  0  0  0  0  0  0  0  0  0  0  0
   -2.5759   -3.6980    0.7936 H   0  0  0  0  0  0  0  0  0  0  0  0
   -0.1840   -1.1232    3.0509 H   0  0  0  0  0  0  0  0  0  0  0  0
   -2.5252    1.6022    3.5166 H   0  0  0  0  0  0  0  0  0  0  0  0
   -3.7312    2.8184    1.7629 H   0  0  0  0  0  0  0  0  0  0  0  0
   -4.2470    3.1814   -0.6090 H   0  0  0  0  0  0  0  0  0  0  0  0
   -3.9313    2.5811   -2.9757 H   0  0  0  0  0  0  0  0  0  0  0  0
   -2.4011    0.7438   -3.6069 H   0  0  0  0  0  0  0  0  0  0  0  0
   -1.1790   -0.5045   -1.8959 H   0  0  0  0  0  0  0  0  0  0  0  0
    0.9008    1.2225    0.3820 H   0  0  0  0  0  0  0  0  0  0  0  0
  1  2  1  0
  2  3  1  0
  3  4  2  0
  4  5  1  0
  5  6  2  0
  6  7  1  0
  7  8  2  0
  8  9  1  0
  9 10  1  0
  9 11  2  0
 11 12  1  0
 12 13  2  0
 13 14  1  0
 13 15  1  0
 15 16  2  0
 16 17  1  0
 17 18  2  0
 18 19  1  0
 19 20  2  0
 20 21  1  0
 21 22  2  0
 11 23  1  0
 23 24  2  0
 24  3  1  0
 23  6  1  0
 22 12  1  0
 22 17  1  0
  1 25  1  0
  1 26  1  0
  1 27  1  0
  4 28  1  0
  5 29  1  0
  7 30  1  0
  8 31  1  0
 10 32  1  0
 14 33  1  0
 15 34  1  0
 16 35  1  0
 18 36  1  0
 19 37  1  0
 20 38  1  0
 21 39  1  0
 24 40  1  0
M  END
