
     RDKit          3D

 56 61  0  0  0  0  0  0  0  0999 V2000
   -0.8746    2.4269   -3.0544 O   0  0  0  0  0  0  0  0  0  0  0  0
    0.2276    1.9275   -2.3565 C   0  0  0  0  0  0  0  0  0  0  0  0
    1.4831    2.4753   -2.6266 C   0  0  0  0  0  0  0  0  0  0  0  0
    2.6180    2.0145   -1.9628 C   0  0  0  0  0  0  0  0  0  0  0  0
    2.5152    0.9923   -1.0108 C   0  0  0  0  0  0  0  0  0  0  0  0
    3.6640    0.5333   -0.3476 C   0  0  0  0  0  0  0  0  0  0  0  0
    3.5794   -0.4929    0.6079 C   0  0  0  0  0  0  0  0  0  0  0  0
    4.7980   -0.9752    1.3069 C   0  0  0  0  0  0  0  0  0  0  0  0
    4.9930   -2.3502    1.5387 C   0  0  0  0  0  0  0  0  0  0  0  0
    6.1413   -2.8016    2.1966 C   0  0  0  0  0  0  0  0  0  0  0  0
    7.1051   -1.8888    2.6306 C   0  0  0  0  0  0  0  0  0  0  0  0
    6.9229   -0.5223    2.4074 C   0  0  0  0  0  0  0  0  0  0  0  0
    5.7771   -0.0652    1.7492 C   0  0  0  0  0  0  0  0  0  0  0  0
    2.3257   -1.0562    0.8931 C   0  0  0  0  0  0  0  0  0  0  0  0
    1.1764   -0.6067    0.2406 C   0  0  0  0  0  0  0  0  0  0  0  0
    1.2507    0.4214   -0.7205 C   0  0  0  0  0  0  0  0  0  0  0  0
    0.0985    0.8950   -1.4002 C   0  0  0  0  0  0  0  0  0  0  0  0
   -1.2415    0.3175   -1.1231 C   0  0  0  0  0  0  0  0  0  0  0  0
   -2.0631    0.9077   -0.1347 C   0  0  0  0  0  0  0  0  0  0  0  0
   -1.6209    2.0109    0.6040 O   0  0  0  0  0  0  0  0  0  0  0  0
   -3.3387    0.3742    0.1349 C   0  0  0  0  0  0  0  0  0  0  0  0
   -4.2250    0.9901    1.1519 C   0  0  0  0  0  0  0  0  0  0  0  0
   -4.5099    2.3668    1.1131 C   0  0  0  0  0  0  0  0  0  0  0  0
   -5.3541    2.9403    2.0689 C   0  0  0  0  0  0  0  0  0  0  0  0
   -5.9241    2.1462    3.0672 C   0  0  0  0  0  0  0  0  0  0  0  0
   -5.6534    0.7762    3.1097 C   0  0  0  0  0  0  0  0  0  0  0  0
   -4.8102    0.1979    2.1558 C   0  0  0  0  0  0  0  0  0  0  0  0
   -3.7792   -0.7592   -0.5614 C   0  0  0  0  0  0  0  0  0  0  0  0
   -2.9752   -1.3595   -1.5361 C   0  0  0  0  0  0  0  0  0  0  0  0
   -3.4373   -2.4921   -2.2262 C   0  0  0  0  0  0  0  0  0  0  0  0
   -2.6426   -3.0951   -3.2018 C   0  0  0  0  0  0  0  0  0  0  0  0
   -1.3832   -2.5751   -3.4982 C   0  0  0  0  0  0  0  0  0  0  0  0
   -0.9096   -1.4490   -2.8212 C   0  0  0  0  0  0  0  0  0  0  0  0
   -1.6969   -0.8234   -1.8296 C   0  0  0  0  0  0  0  0  0  0  0  0
   -1.8161    2.0807   -2.9181 H   0  0  0  0  0  0  0  0  0  0  0  0
    1.5794    3.2662   -3.3598 H   0  0  0  0  0  0  0  0  0  0  0  0
    3.5786    2.4592   -2.1945 H   0  0  0  0  0  0  0  0  0  0  0  0
    4.6291    0.9638   -0.5895 H   0  0  0  0  0  0  0  0  0  0  0  0
    4.2668   -3.0766    1.1961 H   0  0  0  0  0  0  0  0  0  0  0  0
    6.2853   -3.8608    2.3670 H   0  0  0  0  0  0  0  0  0  0  0  0
    7.9930   -2.2404    3.1401 H   0  0  0  0  0  0  0  0  0  0  0  0
    7.6687    0.1845    2.7477 H   0  0  0  0  0  0  0  0  0  0  0  0
    5.6483    0.9997    1.6019 H   0  0  0  0  0  0  0  0  0  0  0  0
    2.2299   -1.8364    1.6379 H   0  0  0  0  0  0  0  0  0  0  0  0
    0.2324   -1.0692    0.4982 H   0  0  0  0  0  0  0  0  0  0  0  0
   -0.7139    2.4405    0.4728 H   0  0  0  0  0  0  0  0  0  0  0  0
   -4.0908    2.9936    0.3356 H   0  0  0  0  0  0  0  0  0  0  0  0
   -5.5698    4.0004    2.0330 H   0  0  0  0  0  0  0  0  0  0  0  0
   -6.5776    2.5919    3.8059 H   0  0  0  0  0  0  0  0  0  0  0  0
   -6.0964    0.1617    3.8828 H   0  0  0  0  0  0  0  0  0  0  0  0
   -4.6049   -0.8643    2.2069 H   0  0  0  0  0  0  0  0  0  0  0  0
   -4.7626   -1.1659   -0.3517 H   0  0  0  0  0  0  0  0  0  0  0  0
   -4.4133   -2.9109   -2.0109 H   0  0  0  0  0  0  0  0  0  0  0  0
   -3.0043   -3.9680   -3.7299 H   0  0  0  0  0  0  0  0  0  0  0  0
   -0.7705   -3.0464   -4.2560 H   0  0  0  0  0  0  0  0  0  0  0  0
    0.0728   -1.0762   -3.0803 H   0  0  0  0  0  0  0  0  0  0  0  0
  1  2  1  0
  2  3  2  0
  3  4  1  0
  4  5  2  0
  5  6  1  0
  6  7  2  0
  7  8  1  0
  8  9  2  0
  9 10  1  0
 10 11  2  0
 11 12  1  0
 12 13  2  0
  7 14  1  0
 14 15  2  0
 15 16  1  0
 16 17  2  0
 17 18  1  0
 18 19  2  0
 19 20  1  0
 19 21  1  0
 21 22  1  0
 22 23  2  0
 23 24  1  0
 24 25  2  0
 25 26  1  0
 26 27  2  0
 21 28  2  0
 28 29  1  0
 29 30  2  0
 30 31  1  0
 31 32  2  0
 32 33  1  0
 33 34  2  0
 17  2  1  0
 34 18  1  0
 16  5  1  0
 27 22  1  0
 34 29  1  0
 13  8  1  0
  1 35  1  0
  3 36  1  0
  4 37  1  0
  6 38  1  0
  9 39  1  0
 10 40  1  0
 11 41  1  0
 12 42  1  0
 13 43  1  0
 14 44  1  0
 15 45  1  0
 20 46  1  0
 23 47  1  0
 24 48  1  0
 25 49  1  0
 26 50  1  0
 27 51  1  0
 28 52  1  0
 30 53  1  0
 31 54  1  0
 32 55  1  0
 33 56  1  0
M  END
