
     RDKit          3D

 36 38  0  0  0  0  0  0  0  0999 V2000
   -3.9670   -1.7102    0.6534 C   0  0  0  0  0  0  0  0  0  0  0  0
   -3.0171   -0.6015    0.2911 C   0  0  0  0  0  0  0  0  0  0  0  0
   -3.4795    0.7225    0.2697 C   0  0  0  0  0  0  0  0  0  0  0  0
   -2.6212    1.7700   -0.0615 C   0  0  0  0  0  0  0  0  0  0  0  0
   -1.2797    1.5192   -0.3801 C   0  0  0  0  0  0  0  0  0  0  0  0
   -0.3711    2.6679   -0.7312 C   0  0  0  0  0  0  0  0  0  0  0  0
   -0.8007    0.1902   -0.3619 C   0  0  0  0  0  0  0  0  0  0  0  0
    0.6157   -0.1073   -0.6890 C   0  0  0  0  0  0  0  0  0  0  0  0
    0.9795   -0.3802   -2.0273 C   0  0  0  0  0  0  0  0  0  0  0  0
    0.0400   -0.3773   -3.0612 O   0  0  0  0  0  0  0  0  0  0  0  0
    2.3098   -0.6613   -2.3463 C   0  0  0  0  0  0  0  0  0  0  0  0
    3.2908   -0.6770   -1.3572 C   0  0  0  0  0  0  0  0  0  0  0  0
    2.9552   -0.4110   -0.0242 C   0  0  0  0  0  0  0  0  0  0  0  0
    3.9488   -0.4284    0.9675 C   0  0  0  0  0  0  0  0  0  0  0  0
    3.6199   -0.1640    2.2977 C   0  0  0  0  0  0  0  0  0  0  0  0
    2.3005    0.1194    2.6502 C   0  0  0  0  0  0  0  0  0  0  0  0
    1.2999    0.1405    1.6758 C   0  0  0  0  0  0  0  0  0  0  0  0
    1.6094   -0.1236    0.3238 C   0  0  0  0  0  0  0  0  0  0  0  0
   -1.6666   -0.8692   -0.0268 C   0  0  0  0  0  0  0  0  0  0  0  0
   -1.1608   -2.1734   -0.0164 O   0  0  0  0  0  0  0  0  0  0  0  0
   -3.5997   -2.2389    1.5580 H   0  0  0  0  0  0  0  0  0  0  0  0
   -4.0463   -2.4276   -0.1903 H   0  0  0  0  0  0  0  0  0  0  0  0
   -4.9854   -1.3240    0.8717 H   0  0  0  0  0  0  0  0  0  0  0  0
   -4.5108    0.9491    0.5109 H   0  0  0  0  0  0  0  0  0  0  0  0
   -3.0084    2.7815   -0.0682 H   0  0  0  0  0  0  0  0  0  0  0  0
   -0.9093    3.6393   -0.7100 H   0  0  0  0  0  0  0  0  0  0  0  0
    0.0401    2.5229   -1.7522 H   0  0  0  0  0  0  0  0  0  0  0  0
    0.4662    2.7195   -0.0040 H   0  0  0  0  0  0  0  0  0  0  0  0
   -0.9419   -0.1803   -2.9129 H   0  0  0  0  0  0  0  0  0  0  0  0
    2.5852   -0.8692   -3.3725 H   0  0  0  0  0  0  0  0  0  0  0  0
    4.3146   -0.8978   -1.6355 H   0  0  0  0  0  0  0  0  0  0  0  0
    4.9795   -0.6465    0.7136 H   0  0  0  0  0  0  0  0  0  0  0  0
    4.3904   -0.1787    3.0578 H   0  0  0  0  0  0  0  0  0  0  0  0
    2.0514    0.3239    3.6835 H   0  0  0  0  0  0  0  0  0  0  0  0
    0.2887    0.3653    1.9891 H   0  0  0  0  0  0  0  0  0  0  0  0
   -1.7205   -2.9838    0.2149 H   0  0  0  0  0  0  0  0  0  0  0  0
  1  2  1  0
  2  3  2  0
  3  4  1  0
  4  5  2  0
  5  6  1  0
  5  7  1  0
  7  8  1  0
  8  9  2  0
  9 10  1  0
  9 11  1  0
 11 12  2  0
 12 13  1  0
 13 14  2  0
 14 15  1  0
 15 16  2  0
 16 17  1  0
 17 18  2  0
  7 19  2  0
 19 20  1  0
 19  2  1  0
 18  8  1  0
 18 13  1  0
  1 21  1  0
  1 22  1  0
  1 23  1  0
  3 24  1  0
  4 25  1  0
  6 26  1  0
  6 27  1  0
  6 28  1  0
 10 29  1  0
 11 30  1  0
 12 31  1  0
 14 32  1  0
 15 33  1  0
 16 34  1  0
 17 35  1  0
 20 36  1  0
M  END
