
     RDKit          3D

 33 35  0  0  0  0  0  0  0  0999 V2000
   -1.0985    2.3243   -0.7426 C   0  0  0  0  0  0  0  0  0  0  0  0
   -1.7737    0.9784   -0.7381 C   0  0  0  0  0  0  0  0  0  0  0  0
   -2.9727    0.8003   -1.4478 C   0  0  0  0  0  0  0  0  0  0  0  0
   -3.6115   -0.4407   -1.4581 C   0  0  0  0  0  0  0  0  0  0  0  0
   -3.0626   -1.5181   -0.7625 C   0  0  0  0  0  0  0  0  0  0  0  0
   -1.8671   -1.3624   -0.0497 C   0  0  0  0  0  0  0  0  0  0  0  0
   -1.3211   -2.4435    0.6425 O   0  0  0  0  0  0  0  0  0  0  0  0
   -1.2164   -0.1145   -0.0334 C   0  0  0  0  0  0  0  0  0  0  0  0
    0.0511    0.0340    0.7224 C   0  0  0  0  0  0  0  0  0  0  0  0
    0.0107    0.4118    2.0838 C   0  0  0  0  0  0  0  0  0  0  0  0
   -1.1956    0.6535    2.7456 O   0  0  0  0  0  0  0  0  0  0  0  0
    1.1981    0.5549    2.8047 C   0  0  0  0  0  0  0  0  0  0  0  0
    2.4314    0.3294    2.1971 C   0  0  0  0  0  0  0  0  0  0  0  0
    2.4975   -0.0461    0.8499 C   0  0  0  0  0  0  0  0  0  0  0  0
    3.7436   -0.2713    0.2437 C   0  0  0  0  0  0  0  0  0  0  0  0
    3.8156   -0.6456   -1.0988 C   0  0  0  0  0  0  0  0  0  0  0  0
    2.6485   -0.7985   -1.8470 C   0  0  0  0  0  0  0  0  0  0  0  0
    1.4006   -0.5785   -1.2590 C   0  0  0  0  0  0  0  0  0  0  0  0
    1.3036   -0.1988    0.0974 C   0  0  0  0  0  0  0  0  0  0  0  0
   -0.0888    2.2354   -1.1956 H   0  0  0  0  0  0  0  0  0  0  0  0
   -1.6766    3.0719   -1.3261 H   0  0  0  0  0  0  0  0  0  0  0  0
   -1.0003    2.6986    0.2980 H   0  0  0  0  0  0  0  0  0  0  0  0
   -3.4162    1.6226   -1.9956 H   0  0  0  0  0  0  0  0  0  0  0  0
   -4.5353   -0.5678   -2.0077 H   0  0  0  0  0  0  0  0  0  0  0  0
   -3.5670   -2.4758   -0.7784 H   0  0  0  0  0  0  0  0  0  0  0  0
   -1.7689   -3.3525    0.6462 H   0  0  0  0  0  0  0  0  0  0  0  0
   -2.0978    0.5754    2.2930 H   0  0  0  0  0  0  0  0  0  0  0  0
    1.1636    0.8450    3.8473 H   0  0  0  0  0  0  0  0  0  0  0  0
    3.3357    0.4491    2.7822 H   0  0  0  0  0  0  0  0  0  0  0  0
    4.6616   -0.1577    0.8082 H   0  0  0  0  0  0  0  0  0  0  0  0
    4.7792   -0.8176   -1.5607 H   0  0  0  0  0  0  0  0  0  0  0  0
    2.7104   -1.0887   -2.8880 H   0  0  0  0  0  0  0  0  0  0  0  0
    0.5187   -0.7067   -1.8730 H   0  0  0  0  0  0  0  0  0  0  0  0
  1  2  1  0
  2  3  2  0
  3  4  1  0
  4  5  2  0
  5  6  1  0
  6  7  1  0
  6  8  2  0
  8  9  1  0
  9 10  2  0
 10 11  1  0
 10 12  1  0
 12 13  2  0
 13 14  1  0
 14 15  2  0
 15 16  1  0
 16 17  2  0
 17 18  1  0
 18 19  2  0
  8  2  1  0
 19  9  1  0
 19 14  1  0
  1 20  1  0
  1 21  1  0
  1 22  1  0
  3 23  1  0
  4 24  1  0
  5 25  1  0
  7 26  1  0
 11 27  1  0
 12 28  1  0
 13 29  1  0
 15 30  1  0
 16 31  1  0
 17 32  1  0
 18 33  1  0
M  END
