
     RDKit          3D

 43 46  0  0  0  0  0  0  0  0999 V2000
   -2.6040    0.3267   -1.8352 C   0  0  0  0  0  0  0  0  0  0  0  0
   -2.8823   -0.6819   -0.7514 C   0  0  0  0  0  0  0  0  0  0  0  0
   -4.0523   -1.4563   -0.8109 C   0  0  0  0  0  0  0  0  0  0  0  0
   -4.3312   -2.3945    0.1831 C   0  0  0  0  0  0  0  0  0  0  0  0
   -3.4477   -2.5722    1.2471 C   0  0  0  0  0  0  0  0  0  0  0  0
   -2.2758   -1.8148    1.3295 C   0  0  0  0  0  0  0  0  0  0  0  0
   -1.4221   -2.0283    2.4140 O   0  0  0  0  0  0  0  0  0  0  0  0
   -1.9837   -0.8611    0.3277 C   0  0  0  0  0  0  0  0  0  0  0  0
   -0.7420   -0.0530    0.4093 C   0  0  0  0  0  0  0  0  0  0  0  0
    0.4213   -0.5364   -0.2201 C   0  0  0  0  0  0  0  0  0  0  0  0
    0.3688   -1.7789   -0.8614 O   0  0  0  0  0  0  0  0  0  0  0  0
    1.6149    0.2178   -0.1765 C   0  0  0  0  0  0  0  0  0  0  0  0
    2.8377   -0.2185   -0.8850 C   0  0  0  0  0  0  0  0  0  0  0  0
    2.8260   -0.3961   -2.2791 C   0  0  0  0  0  0  0  0  0  0  0  0
    3.9898   -0.7861   -2.9488 C   0  0  0  0  0  0  0  0  0  0  0  0
    5.1735   -0.9919   -2.2347 C   0  0  0  0  0  0  0  0  0  0  0  0
    5.1962   -0.8047   -0.8498 C   0  0  0  0  0  0  0  0  0  0  0  0
    4.0345   -0.4149   -0.1759 C   0  0  0  0  0  0  0  0  0  0  0  0
    1.6454    1.4249    0.5344 C   0  0  0  0  0  0  0  0  0  0  0  0
    0.5001    1.9081    1.1772 C   0  0  0  0  0  0  0  0  0  0  0  0
    0.5476    3.1249    1.8767 C   0  0  0  0  0  0  0  0  0  0  0  0
   -0.5935    3.6166    2.5122 C   0  0  0  0  0  0  0  0  0  0  0  0
   -1.7896    2.9017    2.4550 C   0  0  0  0  0  0  0  0  0  0  0  0
   -1.8530    1.6899    1.7632 C   0  0  0  0  0  0  0  0  0  0  0  0
   -0.7102    1.1741    1.1147 C   0  0  0  0  0  0  0  0  0  0  0  0
   -1.6549    0.0706   -2.3513 H   0  0  0  0  0  0  0  0  0  0  0  0
   -2.5164    1.3405   -1.3911 H   0  0  0  0  0  0  0  0  0  0  0  0
   -3.4155    0.3502   -2.5932 H   0  0  0  0  0  0  0  0  0  0  0  0
   -4.7527   -1.3349   -1.6279 H   0  0  0  0  0  0  0  0  0  0  0  0
   -5.2360   -2.9861    0.1285 H   0  0  0  0  0  0  0  0  0  0  0  0
   -3.6741   -3.3030    2.0132 H   0  0  0  0  0  0  0  0  0  0  0  0
   -0.5570   -1.5179    2.5407 H   0  0  0  0  0  0  0  0  0  0  0  0
    1.1825   -2.2373   -1.2501 H   0  0  0  0  0  0  0  0  0  0  0  0
    1.9175   -0.2292   -2.8450 H   0  0  0  0  0  0  0  0  0  0  0  0
    3.9749   -0.9254   -4.0221 H   0  0  0  0  0  0  0  0  0  0  0  0
    6.0737   -1.2929   -2.7547 H   0  0  0  0  0  0  0  0  0  0  0  0
    6.1144   -0.9604   -0.2984 H   0  0  0  0  0  0  0  0  0  0  0  0
    4.0652   -0.2730    0.8975 H   0  0  0  0  0  0  0  0  0  0  0  0
    2.5644    2.0003    0.5686 H   0  0  0  0  0  0  0  0  0  0  0  0
    1.4669    3.6961    1.9310 H   0  0  0  0  0  0  0  0  0  0  0  0
   -0.5506    4.5551    3.0496 H   0  0  0  0  0  0  0  0  0  0  0  0
   -2.6721    3.2878    2.9487 H   0  0  0  0  0  0  0  0  0  0  0  0
   -2.7989    1.1645    1.7406 H   0  0  0  0  0  0  0  0  0  0  0  0
  1  2  1  0
  2  3  2  0
  3  4  1  0
  4  5  2  0
  5  6  1  0
  6  7  1  0
  6  8  2  0
  8  9  1  0
  9 10  2  0
 10 11  1  0
 10 12  1  0
 12 13  1  0
 13 14  2  0
 14 15  1  0
 15 16  2  0
 16 17  1  0
 17 18  2  0
 12 19  2  0
 19 20  1  0
 20 21  2  0
 21 22  1  0
 22 23  2  0
 23 24  1  0
 24 25  2  0
  8  2  1  0
 25  9  1  0
 18 13  1  0
 25 20  1  0
  1 26  1  0
  1 27  1  0
  1 28  1  0
  3 29  1  0
  4 30  1  0
  5 31  1  0
  7 32  1  0
 11 33  1  0
 14 34  1  0
 15 35  1  0
 16 36  1  0
 17 37  1  0
 18 38  1  0
 19 39  1  0
 21 40  1  0
 22 41  1  0
 23 42  1  0
 24 43  1  0
M  END
