
     RDKit          3D

 40 43  0  0  0  0  0  0  0  0999 V2000
    0.0670   -2.5922   -2.0707 O   0  0  0  0  0  0  0  0  0  0  0  0
   -0.8281   -1.6981   -1.4787 C   0  0  0  0  0  0  0  0  0  0  0  0
   -2.1354   -1.6549   -1.9621 C   0  0  0  0  0  0  0  0  0  0  0  0
   -3.0697   -0.7887   -1.4008 C   0  0  0  0  0  0  0  0  0  0  0  0
   -2.7162    0.0516   -0.3371 C   0  0  0  0  0  0  0  0  0  0  0  0
   -1.3829    0.0499    0.1463 C   0  0  0  0  0  0  0  0  0  0  0  0
   -0.4429   -0.8512   -0.4165 C   0  0  0  0  0  0  0  0  0  0  0  0
    0.9441   -0.9162    0.1082 C   0  0  0  0  0  0  0  0  0  0  0  0
    1.2414   -1.7797    1.1870 C   0  0  0  0  0  0  0  0  0  0  0  0
    0.2630   -2.5812    1.7800 O   0  0  0  0  0  0  0  0  0  0  0  0
    2.5429   -1.8482    1.6885 C   0  0  0  0  0  0  0  0  0  0  0  0
    3.5601   -1.0722    1.1370 C   0  0  0  0  0  0  0  0  0  0  0  0
    3.2903   -0.2087    0.0684 C   0  0  0  0  0  0  0  0  0  0  0  0
    4.3194    0.5723   -0.4812 C   0  0  0  0  0  0  0  0  0  0  0  0
    4.0552    1.4369   -1.5444 C   0  0  0  0  0  0  0  0  0  0  0  0
    2.7657    1.5305   -2.0676 C   0  0  0  0  0  0  0  0  0  0  0  0
    1.7307    0.7599   -1.5327 C   0  0  0  0  0  0  0  0  0  0  0  0
    1.9750   -0.1223   -0.4580 C   0  0  0  0  0  0  0  0  0  0  0  0
   -0.9874    0.9213    1.3269 C   0  0  0  0  0  0  0  0  0  0  0  0
   -1.9653    2.0700    1.5849 C   0  0  0  0  0  0  0  0  0  0  0  0
   -3.4020    1.5570    1.5768 C   0  0  0  0  0  0  0  0  0  0  0  0
   -3.7562    1.0114    0.1932 C   0  0  0  0  0  0  0  0  0  0  0  0
    1.0316   -2.6815   -1.7766 H   0  0  0  0  0  0  0  0  0  0  0  0
   -2.4300   -2.3000   -2.7803 H   0  0  0  0  0  0  0  0  0  0  0  0
   -4.0768   -0.7716   -1.7994 H   0  0  0  0  0  0  0  0  0  0  0  0
   -0.7023   -2.5889    1.4751 H   0  0  0  0  0  0  0  0  0  0  0  0
    2.7674   -2.5106    2.5150 H   0  0  0  0  0  0  0  0  0  0  0  0
    4.5601   -1.1469    1.5478 H   0  0  0  0  0  0  0  0  0  0  0  0
    5.3274    0.5145   -0.0879 H   0  0  0  0  0  0  0  0  0  0  0  0
    4.8527    2.0368   -1.9636 H   0  0  0  0  0  0  0  0  0  0  0  0
    2.5664    2.2036   -2.8916 H   0  0  0  0  0  0  0  0  0  0  0  0
    0.7437    0.8623   -1.9648 H   0  0  0  0  0  0  0  0  0  0  0  0
   -0.9325    0.2807    2.2338 H   0  0  0  0  0  0  0  0  0  0  0  0
    0.0176    1.3640    1.1586 H   0  0  0  0  0  0  0  0  0  0  0  0
   -1.7411    2.5287    2.5721 H   0  0  0  0  0  0  0  0  0  0  0  0
   -1.8399    2.8536    0.8051 H   0  0  0  0  0  0  0  0  0  0  0  0
   -3.5232    0.7577    2.3412 H   0  0  0  0  0  0  0  0  0  0  0  0
   -4.0942    2.3879    1.8330 H   0  0  0  0  0  0  0  0  0  0  0  0
   -3.8518    1.8584   -0.5206 H   0  0  0  0  0  0  0  0  0  0  0  0
   -4.7438    0.5042    0.2560 H   0  0  0  0  0  0  0  0  0  0  0  0
  1  2  1  0
  2  3  2  0
  3  4  1  0
  4  5  2  0
  5  6  1  0
  6  7  2  0
  7  8  1  0
  8  9  2  0
  9 10  1  0
  9 11  1  0
 11 12  2  0
 12 13  1  0
 13 14  2  0
 14 15  1  0
 15 16  2  0
 16 17  1  0
 17 18  2  0
  6 19  1  0
 19 20  1  0
 20 21  1  0
 21 22  1  0
  7  2  1  0
 18  8  1  0
 22  5  1  0
 18 13  1  0
  1 23  1  0
  3 24  1  0
  4 25  1  0
 10 26  1  0
 11 27  1  0
 12 28  1  0
 14 29  1  0
 15 30  1  0
 16 31  1  0
 17 32  1  0
 19 33  1  0
 19 34  1  0
 20 35  1  0
 20 36  1  0
 21 37  1  0
 21 38  1  0
 22 39  1  0
 22 40  1  0
M  END
