
     RDKit          3D

 62 67  0  0  0  0  0  0  0  0999 V2000
   -1.9789    3.5672    2.6880 C   0  0  0  0  0  0  0  0  0  0  0  0
   -1.8880    2.3916    1.7405 C   0  0  0  0  0  0  0  0  0  0  0  0
   -0.7357    1.5648    1.7864 C   0  0  0  0  0  0  0  0  0  0  0  0
    0.2917    1.8810    2.6829 O   0  0  0  0  0  0  0  0  0  0  0  0
   -0.6205    0.4462    0.9309 C   0  0  0  0  0  0  0  0  0  0  0  0
    0.5831   -0.4047    0.9732 C   0  0  0  0  0  0  0  0  0  0  0  0
    0.6634   -1.4851    1.8802 C   0  0  0  0  0  0  0  0  0  0  0  0
   -0.3988   -1.7630    2.7483 O   0  0  0  0  0  0  0  0  0  0  0  0
    1.8158   -2.3122    1.9154 C   0  0  0  0  0  0  0  0  0  0  0  0
    1.8682   -3.4456    2.9158 C   0  0  0  0  0  0  0  0  0  0  0  0
    2.8789   -2.1068    0.9855 C   0  0  0  0  0  0  0  0  0  0  0  0
    3.9931   -3.1216    0.8677 C   0  0  0  0  0  0  0  0  0  0  0  0
    2.8206   -0.9540    0.1603 C   0  0  0  0  0  0  0  0  0  0  0  0
    1.6839   -0.1550    0.1417 C   0  0  0  0  0  0  0  0  0  0  0  0
    1.9071    0.8261   -0.8142 C   0  0  0  0  0  0  0  0  0  0  0  0
    1.1162    1.8828   -1.2841 C   0  0  0  0  0  0  0  0  0  0  0  0
    1.6405    2.7091   -2.2900 C   0  0  0  0  0  0  0  0  0  0  0  0
    2.9270    2.4734   -2.8091 C   0  0  0  0  0  0  0  0  0  0  0  0
    3.7064    1.4115   -2.3241 C   0  0  0  0  0  0  0  0  0  0  0  0
    3.1720    0.5987   -1.3137 C   0  0  0  0  0  0  0  0  0  0  0  0
    3.7574   -0.4646   -0.7088 N   0  0  0  0  0  0  0  0  0  0  0  0
    5.1431   -0.8988   -0.9156 C   0  0  0  0  0  0  0  0  0  0  0  0
   -1.6880    0.1597    0.0684 C   0  0  0  0  0  0  0  0  0  0  0  0
   -1.8740   -0.8620   -0.8522 C   0  0  0  0  0  0  0  0  0  0  0  0
   -1.0660   -1.9373   -1.2444 C   0  0  0  0  0  0  0  0  0  0  0  0
   -1.5509   -2.8069   -2.2335 C   0  0  0  0  0  0  0  0  0  0  0  0
   -2.8158   -2.5952   -2.8126 C   0  0  0  0  0  0  0  0  0  0  0  0
   -3.6129   -1.5141   -2.4050 C   0  0  0  0  0  0  0  0  0  0  0  0
   -3.1182   -0.6578   -1.4105 C   0  0  0  0  0  0  0  0  0  0  0  0
   -3.7261    0.4301   -0.8757 N   0  0  0  0  0  0  0  0  0  0  0  0
   -5.1024    0.8535   -1.1554 C   0  0  0  0  0  0  0  0  0  0  0  0
   -2.8240    0.9576    0.0076 C   0  0  0  0  0  0  0  0  0  0  0  0
   -2.9139    2.1450    0.7793 C   0  0  0  0  0  0  0  0  0  0  0  0
   -4.0219    3.1526    0.5740 C   0  0  0  0  0  0  0  0  0  0  0  0
   -1.6475    4.4910    2.1695 H   0  0  0  0  0  0  0  0  0  0  0  0
   -1.3521    3.4228    3.5922 H   0  0  0  0  0  0  0  0  0  0  0  0
   -3.0195    3.6956    3.0533 H   0  0  0  0  0  0  0  0  0  0  0  0
    1.1450    1.3424    2.7633 H   0  0  0  0  0  0  0  0  0  0  0  0
   -1.2540   -1.2220    2.7717 H   0  0  0  0  0  0  0  0  0  0  0  0
    1.5563   -4.3913    2.4252 H   0  0  0  0  0  0  0  0  0  0  0  0
    2.8935   -3.5575    3.3268 H   0  0  0  0  0  0  0  0  0  0  0  0
    1.2066   -3.2626    3.7876 H   0  0  0  0  0  0  0  0  0  0  0  0
    4.8566   -2.8150    1.4931 H   0  0  0  0  0  0  0  0  0  0  0  0
    3.6695   -4.1319    1.1883 H   0  0  0  0  0  0  0  0  0  0  0  0
    4.2939   -3.2580   -0.1879 H   0  0  0  0  0  0  0  0  0  0  0  0
    0.1268    2.0813   -0.9063 H   0  0  0  0  0  0  0  0  0  0  0  0
    1.0492    3.5311   -2.6722 H   0  0  0  0  0  0  0  0  0  0  0  0
    3.3168    3.1134   -3.5900 H   0  0  0  0  0  0  0  0  0  0  0  0
    4.6854    1.2340   -2.7457 H   0  0  0  0  0  0  0  0  0  0  0  0
    5.1760   -1.7286   -1.6513 H   0  0  0  0  0  0  0  0  0  0  0  0
    5.7696   -0.0676   -1.2956 H   0  0  0  0  0  0  0  0  0  0  0  0
    5.6072   -1.1953    0.0443 H   0  0  0  0  0  0  0  0  0  0  0  0
   -0.0924   -2.1183   -0.8199 H   0  0  0  0  0  0  0  0  0  0  0  0
   -0.9456   -3.6441   -2.5563 H   0  0  0  0  0  0  0  0  0  0  0  0
   -3.1750   -3.2688   -3.5797 H   0  0  0  0  0  0  0  0  0  0  0  0
   -4.5745   -1.3560   -2.8721 H   0  0  0  0  0  0  0  0  0  0  0  0
   -5.1058    1.6507   -1.9270 H   0  0  0  0  0  0  0  0  0  0  0  0
   -5.6037    1.1908   -0.2281 H   0  0  0  0  0  0  0  0  0  0  0  0
   -5.7139    0.0060   -1.5234 H   0  0  0  0  0  0  0  0  0  0  0  0
   -4.2809    3.2429   -0.4976 H   0  0  0  0  0  0  0  0  0  0  0  0
   -4.9095    2.8724    1.1776 H   0  0  0  0  0  0  0  0  0  0  0  0
   -3.7105    4.1761    0.8631 H   0  0  0  0  0  0  0  0  0  0  0  0
  1  2  1  0
  2  3  2  0
  3  4  1  0
  3  5  1  0
  5  6  1  0
  6  7  2  0
  7  8  1  0
  7  9  1  0
  9 10  1  0
  9 11  2  0
 11 12  1  0
 11 13  1  0
 13 14  2  0
 14 15  1  0
 15 16  2  0
 16 17  1  0
 17 18  2  0
 18 19  1  0
 19 20  2  0
 20 21  1  0
 21 22  1  0
  5 23  2  0
 23 24  1  0
 24 25  2  0
 25 26  1  0
 26 27  2  0
 27 28  1  0
 28 29  2  0
 29 30  1  0
 30 31  1  0
 30 32  1  0
 32 33  2  0
 33 34  1  0
 33  2  1  0
 14  6  1  0
 20 15  1  0
 32 23  1  0
 21 13  1  0
 29 24  1  0
  1 35  1  0
  1 36  1  0
  1 37  1  0
  4 38  1  0
  8 39  1  0
 10 40  1  0
 10 41  1  0
 10 42  1  0
 12 43  1  0
 12 44  1  0
 12 45  1  0
 16 46  1  0
 17 47  1  0
 18 48  1  0
 19 49  1  0
 22 50  1  0
 22 51  1  0
 22 52  1  0
 25 53  1  0
 26 54  1  0
 27 55  1  0
 28 56  1  0
 31 57  1  0
 31 58  1  0
 31 59  1  0
 34 60  1  0
 34 61  1  0
 34 62  1  0
M  END
