
     RDKit          3D

 60 65  0  0  0  0  0  0  0  0999 V2000
    8.1627   -3.0988    0.3251 C   0  0  0  0  0  0  0  0  0  0  0  0
    6.7922   -3.3328    0.0180 O   0  0  0  0  0  0  0  0  0  0  0  0
    5.8071   -2.3348   -0.0171 C   0  0  0  0  0  0  0  0  0  0  0  0
    6.0919   -0.9824    0.2530 C   0  0  0  0  0  0  0  0  0  0  0  0
    5.0742   -0.0248    0.2062 C   0  0  0  0  0  0  0  0  0  0  0  0
    3.7584   -0.4029   -0.1009 C   0  0  0  0  0  0  0  0  0  0  0  0
    2.6882    0.6154   -0.1738 C   0  0  0  0  0  0  0  0  0  0  0  0
    2.8251    1.6692   -1.0872 C   0  0  0  0  0  0  0  0  0  0  0  0
    1.8161    2.6279   -1.2329 C   0  0  0  0  0  0  0  0  0  0  0  0
    1.9662    3.6704   -2.1618 C   0  0  0  0  0  0  0  0  0  0  0  0
    0.9593    4.6239   -2.3186 C   0  0  0  0  0  0  0  0  0  0  0  0
   -0.2040    4.5462   -1.5531 C   0  0  0  0  0  0  0  0  0  0  0  0
   -0.3681    3.5155   -0.6249 C   0  0  0  0  0  0  0  0  0  0  0  0
    0.6386    2.5416   -0.4498 C   0  0  0  0  0  0  0  0  0  0  0  0
    0.5031    1.4877    0.4856 C   0  0  0  0  0  0  0  0  0  0  0  0
   -0.7098    1.3625    1.3330 C   0  0  0  0  0  0  0  0  0  0  0  0
   -0.7504    2.0045    2.5913 C   0  0  0  0  0  0  0  0  0  0  0  0
    0.3236    2.7600    3.0678 O   0  0  0  0  0  0  0  0  0  0  0  0
   -1.8871    1.8940    3.3945 C   0  0  0  0  0  0  0  0  0  0  0  0
   -2.9891    1.1550    2.9697 C   0  0  0  0  0  0  0  0  0  0  0  0
   -2.9722    0.5095    1.7268 C   0  0  0  0  0  0  0  0  0  0  0  0
   -4.0875   -0.2317    1.3061 C   0  0  0  0  0  0  0  0  0  0  0  0
   -4.0889   -0.8822    0.0610 C   0  0  0  0  0  0  0  0  0  0  0  0
   -5.2716   -1.6653   -0.3796 C   0  0  0  0  0  0  0  0  0  0  0  0
   -5.9636   -2.4890    0.5286 C   0  0  0  0  0  0  0  0  0  0  0  0
   -7.0763   -3.2254    0.1108 C   0  0  0  0  0  0  0  0  0  0  0  0
   -7.5108   -3.1481   -1.2143 C   0  0  0  0  0  0  0  0  0  0  0  0
   -6.8330   -2.3345   -2.1248 C   0  0  0  0  0  0  0  0  0  0  0  0
   -5.7191   -1.5966   -1.7128 C   0  0  0  0  0  0  0  0  0  0  0  0
   -2.9557   -0.7813   -0.7613 C   0  0  0  0  0  0  0  0  0  0  0  0
   -1.8406   -0.0478   -0.3526 C   0  0  0  0  0  0  0  0  0  0  0  0
   -1.8290    0.6084    0.8946 C   0  0  0  0  0  0  0  0  0  0  0  0
    1.5308    0.5363    0.6322 C   0  0  0  0  0  0  0  0  0  0  0  0
    1.3854   -0.4628    1.6008 O   0  0  0  0  0  0  0  0  0  0  0  0
    3.4779   -1.7488   -0.3825 C   0  0  0  0  0  0  0  0  0  0  0  0
    4.4954   -2.7057   -0.3353 C   0  0  0  0  0  0  0  0  0  0  0  0
    8.2584   -2.6806    1.3494 H   0  0  0  0  0  0  0  0  0  0  0  0
    8.7134   -4.0606    0.2812 H   0  0  0  0  0  0  0  0  0  0  0  0
    8.6063   -2.4009   -0.4161 H   0  0  0  0  0  0  0  0  0  0  0  0
    7.0948   -0.6611    0.4987 H   0  0  0  0  0  0  0  0  0  0  0  0
    5.3105    1.0113    0.4165 H   0  0  0  0  0  0  0  0  0  0  0  0
    3.7164    1.7286   -1.7026 H   0  0  0  0  0  0  0  0  0  0  0  0
    2.8616    3.7468   -2.7674 H   0  0  0  0  0  0  0  0  0  0  0  0
    1.0807    5.4249   -3.0365 H   0  0  0  0  0  0  0  0  0  0  0  0
   -0.9824    5.2877   -1.6791 H   0  0  0  0  0  0  0  0  0  0  0  0
   -1.2845    3.4885   -0.0496 H   0  0  0  0  0  0  0  0  0  0  0  0
    1.1808    2.8900    2.5450 H   0  0  0  0  0  0  0  0  0  0  0  0
   -1.9161    2.3872    4.3580 H   0  0  0  0  0  0  0  0  0  0  0  0
   -3.8570    1.0881    3.6153 H   0  0  0  0  0  0  0  0  0  0  0  0
   -4.9638   -0.2869    1.9419 H   0  0  0  0  0  0  0  0  0  0  0  0
   -5.6340   -2.5772    1.5563 H   0  0  0  0  0  0  0  0  0  0  0  0
   -7.6001   -3.8594    0.8146 H   0  0  0  0  0  0  0  0  0  0  0  0
   -8.3726   -3.7188   -1.5355 H   0  0  0  0  0  0  0  0  0  0  0  0
   -7.1729   -2.2726   -3.1506 H   0  0  0  0  0  0  0  0  0  0  0  0
   -5.2188   -0.9595   -2.4313 H   0  0  0  0  0  0  0  0  0  0  0  0
   -2.9240   -1.2868   -1.7184 H   0  0  0  0  0  0  0  0  0  0  0  0
   -0.9898   -0.0029   -1.0203 H   0  0  0  0  0  0  0  0  0  0  0  0
    2.1175   -1.1212    1.8329 H   0  0  0  0  0  0  0  0  0  0  0  0
    2.4718   -2.0556   -0.6416 H   0  0  0  0  0  0  0  0  0  0  0  0
    4.2645   -3.7414   -0.5505 H   0  0  0  0  0  0  0  0  0  0  0  0
  1  2  1  0
  2  3  1  0
  3  4  2  0
  4  5  1  0
  5  6  2  0
  6  7  1  0
  7  8  2  0
  8  9  1  0
  9 10  2  0
 10 11  1  0
 11 12  2  0
 12 13  1  0
 13 14  2  0
 14 15  1  0
 15 16  1  0
 16 17  2  0
 17 18  1  0
 17 19  1  0
 19 20  2  0
 20 21  1  0
 21 22  2  0
 22 23  1  0
 23 24  1  0
 24 25  2  0
 25 26  1  0
 26 27  2  0
 27 28  1  0
 28 29  2  0
 23 30  2  0
 30 31  1  0
 31 32  2  0
 15 33  2  0
 33 34  1  0
  6 35  1  0
 35 36  2  0
 36  3  1  0
 33  7  1  0
 14  9  1  0
 32 16  1  0
 32 21  1  0
 29 24  1  0
  1 37  1  0
  1 38  1  0
  1 39  1  0
  4 40  1  0
  5 41  1  0
  8 42  1  0
 10 43  1  0
 11 44  1  0
 12 45  1  0
 13 46  1  0
 18 47  1  0
 19 48  1  0
 20 49  1  0
 22 50  1  0
 25 51  1  0
 26 52  1  0
 27 53  1  0
 28 54  1  0
 29 55  1  0
 30 56  1  0
 31 57  1  0
 34 58  1  0
 35 59  1  0
 36 60  1  0
M  END
