
     RDKit          3D

 56 61  0  0  0  0  0  0  0  0999 V2000
   -2.2558    2.3511    3.6225 C   0  0  0  0  0  0  0  0  0  0  0  0
   -2.0615    1.5346    2.3661 C   0  0  0  0  0  0  0  0  0  0  0  0
   -0.7995    0.9246    2.1162 C   0  0  0  0  0  0  0  0  0  0  0  0
    0.2444    1.1244    3.0260 O   0  0  0  0  0  0  0  0  0  0  0  0
   -0.5998    0.1318    0.9586 C   0  0  0  0  0  0  0  0  0  0  0  0
    0.7049   -0.5000    0.6911 C   0  0  0  0  0  0  0  0  0  0  0  0
    1.0172   -1.7484    1.2695 C   0  0  0  0  0  0  0  0  0  0  0  0
    0.0471   -2.3595    2.0722 O   0  0  0  0  0  0  0  0  0  0  0  0
    2.2819   -2.3660    1.0240 C   0  0  0  0  0  0  0  0  0  0  0  0
    2.6335   -3.6494    1.7419 C   0  0  0  0  0  0  0  0  0  0  0  0
    3.1875   -1.7781    0.0899 C   0  0  0  0  0  0  0  0  0  0  0  0
    4.4815   -2.4529   -0.2984 C   0  0  0  0  0  0  0  0  0  0  0  0
    2.8540   -0.5202   -0.4404 C   0  0  0  0  0  0  0  0  0  0  0  0
    3.6026    0.2426   -1.2734 N   0  0  0  0  0  0  0  0  0  0  0  0
    2.8651    1.3455   -1.5063 C   0  0  0  0  0  0  0  0  0  0  0  0
    3.2179    2.4296   -2.3089 C   0  0  0  0  0  0  0  0  0  0  0  0
    2.3058    3.4927   -2.4210 C   0  0  0  0  0  0  0  0  0  0  0  0
    1.0744    3.4536   -1.7337 C   0  0  0  0  0  0  0  0  0  0  0  0
    0.7405    2.3512   -0.9274 C   0  0  0  0  0  0  0  0  0  0  0  0
    1.6617    1.3026   -0.8347 C   0  0  0  0  0  0  0  0  0  0  0  0
    1.6541    0.1000   -0.1428 C   0  0  0  0  0  0  0  0  0  0  0  0
   -1.6779   -0.0309    0.0795 C   0  0  0  0  0  0  0  0  0  0  0  0
   -2.8952    0.5884    0.3000 C   0  0  0  0  0  0  0  0  0  0  0  0
   -3.7818    0.2876   -0.6785 N   0  0  0  0  0  0  0  0  0  0  0  0
   -3.1165   -0.5215   -1.5250 C   0  0  0  0  0  0  0  0  0  0  0  0
   -3.6162   -1.0966   -2.6926 C   0  0  0  0  0  0  0  0  0  0  0  0
   -2.7600   -1.9218   -3.4411 C   0  0  0  0  0  0  0  0  0  0  0  0
   -1.4372   -2.1564   -3.0109 C   0  0  0  0  0  0  0  0  0  0  0  0
   -0.9549   -1.5681   -1.8286 C   0  0  0  0  0  0  0  0  0  0  0  0
   -1.8229   -0.7456   -1.1021 C   0  0  0  0  0  0  0  0  0  0  0  0
   -3.1158    1.4106    1.4156 C   0  0  0  0  0  0  0  0  0  0  0  0
   -4.4543    2.0817    1.6115 C   0  0  0  0  0  0  0  0  0  0  0  0
   -3.2391    2.1219    4.0843 H   0  0  0  0  0  0  0  0  0  0  0  0
   -2.2049    3.4320    3.3748 H   0  0  0  0  0  0  0  0  0  0  0  0
   -1.4886    2.1288    4.3921 H   0  0  0  0  0  0  0  0  0  0  0  0
    1.1692    0.7314    2.9034 H   0  0  0  0  0  0  0  0  0  0  0  0
    0.1298   -3.2994    2.4359 H   0  0  0  0  0  0  0  0  0  0  0  0
    3.7273   -3.8203    1.7913 H   0  0  0  0  0  0  0  0  0  0  0  0
    2.1503   -4.5085    1.2316 H   0  0  0  0  0  0  0  0  0  0  0  0
    2.3027   -3.6079    2.8002 H   0  0  0  0  0  0  0  0  0  0  0  0
    5.2594   -2.2367    0.4632 H   0  0  0  0  0  0  0  0  0  0  0  0
    4.8411   -2.1187   -1.2913 H   0  0  0  0  0  0  0  0  0  0  0  0
    4.3403   -3.5499   -0.3889 H   0  0  0  0  0  0  0  0  0  0  0  0
    4.5555    0.0491   -1.6522 H   0  0  0  0  0  0  0  0  0  0  0  0
    4.1655    2.4532   -2.8312 H   0  0  0  0  0  0  0  0  0  0  0  0
    2.5508    4.3480   -3.0372 H   0  0  0  0  0  0  0  0  0  0  0  0
    0.3819    4.2801   -1.8257 H   0  0  0  0  0  0  0  0  0  0  0  0
   -0.2014    2.3404   -0.4015 H   0  0  0  0  0  0  0  0  0  0  0  0
   -4.7755    0.5944   -0.7687 H   0  0  0  0  0  0  0  0  0  0  0  0
   -4.6333   -0.9141   -3.0145 H   0  0  0  0  0  0  0  0  0  0  0  0
   -3.1188   -2.3821   -4.3525 H   0  0  0  0  0  0  0  0  0  0  0  0
   -0.7888   -2.7968   -3.5945 H   0  0  0  0  0  0  0  0  0  0  0  0
    0.0565   -1.7653   -1.5100 H   0  0  0  0  0  0  0  0  0  0  0  0
   -4.9077    2.3613    0.6390 H   0  0  0  0  0  0  0  0  0  0  0  0
   -4.3584    3.0277    2.1819 H   0  0  0  0  0  0  0  0  0  0  0  0
   -5.1385    1.3948    2.1517 H   0  0  0  0  0  0  0  0  0  0  0  0
  1  2  1  0
  2  3  2  0
  3  4  1  0
  3  5  1  0
  5  6  1  0
  6  7  2  0
  7  8  1  0
  7  9  1  0
  9 10  1  0
  9 11  2  0
 11 12  1  0
 11 13  1  0
 13 14  1  0
 14 15  1  0
 15 16  2  0
 16 17  1  0
 17 18  2  0
 18 19  1  0
 19 20  2  0
 20 21  1  0
  5 22  2  0
 22 23  1  0
 23 24  1  0
 24 25  1  0
 25 26  2  0
 26 27  1  0
 27 28  2  0
 28 29  1  0
 29 30  2  0
 23 31  2  0
 31 32  1  0
 31  2  1  0
 21  6  1  0
 30 22  1  0
 21 13  2  0
 30 25  1  0
 20 15  1  0
  1 33  1  0
  1 34  1  0
  1 35  1  0
  4 36  1  0
  8 37  1  0
 10 38  1  0
 10 39  1  0
 10 40  1  0
 12 41  1  0
 12 42  1  0
 12 43  1  0
 14 44  1  0
 16 45  1  0
 17 46  1  0
 18 47  1  0
 19 48  1  0
 24 49  1  0
 26 50  1  0
 27 51  1  0
 28 52  1  0
 29 53  1  0
 32 54  1  0
 32 55  1  0
 32 56  1  0
M  END
