
     RDKit          3D

 53 57  0  0  0  0  0  0  0  0999 V2000
   -3.5060   -0.8826   -3.0697 O   0  0  0  0  0  0  0  0  0  0  0  0
   -3.7356   -1.1819   -1.7263 C   0  0  0  0  0  0  0  0  0  0  0  0
   -4.3904   -2.3688   -1.3788 C   0  0  0  0  0  0  0  0  0  0  0  0
   -4.6212   -2.6839   -0.0408 C   0  0  0  0  0  0  0  0  0  0  0  0
   -4.2022   -1.8131    0.9735 C   0  0  0  0  0  0  0  0  0  0  0  0
   -4.4376   -2.1355    2.3194 C   0  0  0  0  0  0  0  0  0  0  0  0
   -4.0236   -1.2698    3.3330 C   0  0  0  0  0  0  0  0  0  0  0  0
   -3.3743   -0.0769    3.0142 C   0  0  0  0  0  0  0  0  0  0  0  0
   -3.1327    0.2591    1.6800 C   0  0  0  0  0  0  0  0  0  0  0  0
   -3.5394   -0.6031    0.6394 C   0  0  0  0  0  0  0  0  0  0  0  0
   -3.3050   -0.2926   -0.7242 C   0  0  0  0  0  0  0  0  0  0  0  0
   -2.6049    0.9532   -1.1262 C   0  0  0  0  0  0  0  0  0  0  0  0
   -3.3721    2.0630   -1.5263 C   0  0  0  0  0  0  0  0  0  0  0  0
   -4.7647    1.9774   -1.5458 O   0  0  0  0  0  0  0  0  0  0  0  0
   -2.7417    3.2547   -1.9006 C   0  0  0  0  0  0  0  0  0  0  0  0
   -1.3518    3.3563   -1.8801 C   0  0  0  0  0  0  0  0  0  0  0  0
   -0.5677    2.2633   -1.4878 C   0  0  0  0  0  0  0  0  0  0  0  0
    0.8316    2.3730   -1.4694 C   0  0  0  0  0  0  0  0  0  0  0  0
    1.6257    1.2816   -1.0907 C   0  0  0  0  0  0  0  0  0  0  0  0
    3.1197    1.4132   -1.0291 C   0  0  0  0  0  0  0  0  0  0  0  0
    3.4892    1.7823    0.2835 O   0  0  0  0  0  0  0  0  0  0  0  0
    4.8918    1.6984    0.4434 C   0  0  0  0  0  0  0  0  0  0  0  0
    5.2886    0.3075    0.8619 C   0  0  0  0  0  0  0  0  0  0  0  0
    6.0208   -0.5192   -0.0066 C   0  0  0  0  0  0  0  0  0  0  0  0
    6.3635   -1.8184    0.3812 C   0  0  0  0  0  0  0  0  0  0  0  0
    5.9751   -2.3013    1.6340 C   0  0  0  0  0  0  0  0  0  0  0  0
    5.2416   -1.4863    2.5007 C   0  0  0  0  0  0  0  0  0  0  0  0
    4.8968   -0.1866    2.1167 C   0  0  0  0  0  0  0  0  0  0  0  0
    1.0121    0.0840   -0.7014 C   0  0  0  0  0  0  0  0  0  0  0  0
   -0.3786   -0.0379   -0.7158 C   0  0  0  0  0  0  0  0  0  0  0  0
   -1.1899    1.0466   -1.1073 C   0  0  0  0  0  0  0  0  0  0  0  0
   -3.8040   -1.5052   -3.8115 H   0  0  0  0  0  0  0  0  0  0  0  0
   -4.7207   -3.0528   -2.1502 H   0  0  0  0  0  0  0  0  0  0  0  0
   -5.1288   -3.6102    0.2015 H   0  0  0  0  0  0  0  0  0  0  0  0
   -4.9417   -3.0566    2.5872 H   0  0  0  0  0  0  0  0  0  0  0  0
   -4.2078   -1.5238    4.3689 H   0  0  0  0  0  0  0  0  0  0  0  0
   -3.0570    0.5912    3.8045 H   0  0  0  0  0  0  0  0  0  0  0  0
   -2.6285    1.1939    1.4723 H   0  0  0  0  0  0  0  0  0  0  0  0
   -5.3415    2.7612   -1.8280 H   0  0  0  0  0  0  0  0  0  0  0  0
   -3.3324    4.1086   -2.2070 H   0  0  0  0  0  0  0  0  0  0  0  0
   -0.8889    4.2914   -2.1729 H   0  0  0  0  0  0  0  0  0  0  0  0
    1.3054    3.3075   -1.7490 H   0  0  0  0  0  0  0  0  0  0  0  0
    3.4586    2.1875   -1.7542 H   0  0  0  0  0  0  0  0  0  0  0  0
    3.5759    0.4404   -1.3259 H   0  0  0  0  0  0  0  0  0  0  0  0
    5.1876    2.4011    1.2508 H   0  0  0  0  0  0  0  0  0  0  0  0
    5.4507    2.0322   -0.4631 H   0  0  0  0  0  0  0  0  0  0  0  0
    6.3223   -0.1609   -0.9830 H   0  0  0  0  0  0  0  0  0  0  0  0
    6.9283   -2.4518   -0.2906 H   0  0  0  0  0  0  0  0  0  0  0  0
    6.2403   -3.3074    1.9321 H   0  0  0  0  0  0  0  0  0  0  0  0
    4.9383   -1.8623    3.4692 H   0  0  0  0  0  0  0  0  0  0  0  0
    4.3232    0.4339    2.7942 H   0  0  0  0  0  0  0  0  0  0  0  0
    1.6136   -0.7594   -0.3843 H   0  0  0  0  0  0  0  0  0  0  0  0
   -0.8102   -0.9838   -0.4152 H   0  0  0  0  0  0  0  0  0  0  0  0
  1  2  1  0
  2  3  2  0
  3  4  1  0
  4  5  2  0
  5  6  1  0
  6  7  2  0
  7  8  1  0
  8  9  2  0
  9 10  1  0
 10 11  2  0
 11 12  1  0
 12 13  2  0
 13 14  1  0
 13 15  1  0
 15 16  2  0
 16 17  1  0
 17 18  2  0
 18 19  1  0
 19 20  1  0
 20 21  1  0
 21 22  1  0
 22 23  1  0
 23 24  2  0
 24 25  1  0
 25 26  2  0
 26 27  1  0
 27 28  2  0
 19 29  2  0
 29 30  1  0
 30 31  2  0
 11  2  1  0
 31 12  1  0
 10  5  1  0
 31 17  1  0
 28 23  1  0
  1 32  1  0
  3 33  1  0
  4 34  1  0
  6 35  1  0
  7 36  1  0
  8 37  1  0
  9 38  1  0
 14 39  1  0
 15 40  1  0
 16 41  1  0
 18 42  1  0
 20 43  1  0
 20 44  1  0
 22 45  1  0
 22 46  1  0
 24 47  1  0
 25 48  1  0
 26 49  1  0
 27 50  1  0
 28 51  1  0
 29 52  1  0
 30 53  1  0
M  END
