
     RDKit          3D

 62 67  0  0  0  0  0  0  0  0999 V2000
    0.2532    4.2192    1.7030 O   0  0  0  0  0  0  0  0  0  0  0  0
    1.2462    3.2440    1.5845 C   0  0  0  0  0  0  0  0  0  0  0  0
    2.2317    3.1827    2.5717 C   0  0  0  0  0  0  0  0  0  0  0  0
    3.2439    2.2276    2.5080 C   0  0  0  0  0  0  0  0  0  0  0  0
    3.2881    1.3124    1.4486 C   0  0  0  0  0  0  0  0  0  0  0  0
    4.3097    0.3514    1.3942 C   0  0  0  0  0  0  0  0  0  0  0  0
    4.3668   -0.5766    0.3412 C   0  0  0  0  0  0  0  0  0  0  0  0
    5.4494   -1.5922    0.2885 C   0  0  0  0  0  0  0  0  0  0  0  0
    6.7734   -1.2449    0.6183 C   0  0  0  0  0  0  0  0  0  0  0  0
    7.7905   -2.2030    0.5673 C   0  0  0  0  0  0  0  0  0  0  0  0
    7.4991   -3.5153    0.1885 C   0  0  0  0  0  0  0  0  0  0  0  0
    6.1897   -3.8724   -0.1408 C   0  0  0  0  0  0  0  0  0  0  0  0
    5.1687   -2.9182   -0.0925 C   0  0  0  0  0  0  0  0  0  0  0  0
    3.3852   -0.5304   -0.6612 C   0  0  0  0  0  0  0  0  0  0  0  0
    2.3655    0.4220   -0.6180 C   0  0  0  0  0  0  0  0  0  0  0  0
    2.2985    1.3566    0.4347 C   0  0  0  0  0  0  0  0  0  0  0  0
    1.2707    2.3326    0.5046 C   0  0  0  0  0  0  0  0  0  0  0  0
    0.2155    2.4043   -0.5378 C   0  0  0  0  0  0  0  0  0  0  0  0
    0.3956    3.2518   -1.6543 C   0  0  0  0  0  0  0  0  0  0  0  0
    1.5443    4.0313   -1.8097 O   0  0  0  0  0  0  0  0  0  0  0  0
   -0.5894    3.3246   -2.6411 C   0  0  0  0  0  0  0  0  0  0  0  0
   -1.7535    2.5658   -2.5414 C   0  0  0  0  0  0  0  0  0  0  0  0
   -1.9532    1.7162   -1.4459 C   0  0  0  0  0  0  0  0  0  0  0  0
   -3.1278    0.9531   -1.3553 C   0  0  0  0  0  0  0  0  0  0  0  0
   -3.3430    0.0931   -0.2664 C   0  0  0  0  0  0  0  0  0  0  0  0
   -4.6203   -0.7239   -0.1833 C   0  0  0  0  0  0  0  0  0  0  0  0
   -5.5061   -0.2731    1.0075 C   0  0  0  0  0  0  0  0  0  0  0  0
   -6.4451   -1.3831    1.5236 C   0  0  0  0  0  0  0  0  0  0  0  0
   -6.8452   -2.3555    0.4091 C   0  0  0  0  0  0  0  0  0  0  0  0
   -5.6186   -3.0694   -0.1960 C   0  0  0  0  0  0  0  0  0  0  0  0
   -4.3229   -2.2348   -0.1246 C   0  0  0  0  0  0  0  0  0  0  0  0
   -2.3665    0.0120    0.7404 C   0  0  0  0  0  0  0  0  0  0  0  0
   -1.1954    0.7669    0.6609 C   0  0  0  0  0  0  0  0  0  0  0  0
   -0.9678    1.6284   -0.4309 C   0  0  0  0  0  0  0  0  0  0  0  0
   -0.4981    4.3249    1.0326 H   0  0  0  0  0  0  0  0  0  0  0  0
    2.2110    3.8823    3.3978 H   0  0  0  0  0  0  0  0  0  0  0  0
    3.9939    2.2044    3.2899 H   0  0  0  0  0  0  0  0  0  0  0  0
    5.0515    0.3141    2.1838 H   0  0  0  0  0  0  0  0  0  0  0  0
    7.0249   -0.2296    0.8981 H   0  0  0  0  0  0  0  0  0  0  0  0
    8.8064   -1.9266    0.8185 H   0  0  0  0  0  0  0  0  0  0  0  0
    8.2879   -4.2554    0.1500 H   0  0  0  0  0  0  0  0  0  0  0  0
    5.9644   -4.8906   -0.4308 H   0  0  0  0  0  0  0  0  0  0  0  0
    4.1580   -3.2209   -0.3358 H   0  0  0  0  0  0  0  0  0  0  0  0
    3.4157   -1.2229   -1.4931 H   0  0  0  0  0  0  0  0  0  0  0  0
    1.6347    0.4200   -1.4163 H   0  0  0  0  0  0  0  0  0  0  0  0
    2.3052    4.0305   -1.1419 H   0  0  0  0  0  0  0  0  0  0  0  0
   -0.4494    3.9752   -3.4952 H   0  0  0  0  0  0  0  0  0  0  0  0
   -2.4991    2.6429   -3.3241 H   0  0  0  0  0  0  0  0  0  0  0  0
   -3.8765    1.0280   -2.1358 H   0  0  0  0  0  0  0  0  0  0  0  0
   -5.2112   -0.5573   -1.1132 H   0  0  0  0  0  0  0  0  0  0  0  0
   -4.8840    0.0712    1.8619 H   0  0  0  0  0  0  0  0  0  0  0  0
   -6.1162    0.5982    0.6823 H   0  0  0  0  0  0  0  0  0  0  0  0
   -7.3572   -0.9233    1.9617 H   0  0  0  0  0  0  0  0  0  0  0  0
   -5.9358   -1.9533    2.3317 H   0  0  0  0  0  0  0  0  0  0  0  0
   -7.3770   -1.7901   -0.3878 H   0  0  0  0  0  0  0  0  0  0  0  0
   -7.5531   -3.1118    0.8117 H   0  0  0  0  0  0  0  0  0  0  0  0
   -5.4518   -4.0310    0.3369 H   0  0  0  0  0  0  0  0  0  0  0  0
   -5.8399   -3.3156   -1.2574 H   0  0  0  0  0  0  0  0  0  0  0  0
   -3.6557   -2.5242   -0.9661 H   0  0  0  0  0  0  0  0  0  0  0  0
   -3.7942   -2.4764    0.8232 H   0  0  0  0  0  0  0  0  0  0  0  0
   -2.5117   -0.6351    1.5958 H   0  0  0  0  0  0  0  0  0  0  0  0
   -0.4733    0.6696    1.4613 H   0  0  0  0  0  0  0  0  0  0  0  0
  1  2  1  0
  2  3  2  0
  3  4  1  0
  4  5  2  0
  5  6  1  0
  6  7  2  0
  7  8  1  0
  8  9  2  0
  9 10  1  0
 10 11  2  0
 11 12  1  0
 12 13  2  0
  7 14  1  0
 14 15  2  0
 15 16  1  0
 16 17  2  0
 17 18  1  0
 18 19  2  0
 19 20  1  0
 19 21  1  0
 21 22  2  0
 22 23  1  0
 23 24  2  0
 24 25  1  0
 25 26  1  0
 26 27  1  0
 27 28  1  0
 28 29  1  0
 29 30  1  0
 30 31  1  0
 25 32  2  0
 32 33  1  0
 33 34  2  0
 17  2  1  0
 34 18  1  0
 16  5  1  0
 34 23  1  0
 13  8  1  0
 31 26  1  0
  1 35  1  0
  3 36  1  0
  4 37  1  0
  6 38  1  0
  9 39  1  0
 10 40  1  0
 11 41  1  0
 12 42  1  0
 13 43  1  0
 14 44  1  0
 15 45  1  0
 20 46  1  0
 21 47  1  0
 22 48  1  0
 24 49  1  0
 26 50  1  0
 27 51  1  0
 27 52  1  0
 28 53  1  0
 28 54  1  0
 29 55  1  0
 29 56  1  0
 30 57  1  0
 30 58  1  0
 31 59  1  0
 31 60  1  0
 32 61  1  0
 33 62  1  0
M  END
