
     RDKit          3D

 60 65  0  0  0  0  0  0  0  0999 V2000
    9.2011    2.5677   -1.3488 C   0  0  0  0  0  0  0  0  0  0  0  0
    7.8497    2.9291   -1.6144 O   0  0  0  0  0  0  0  0  0  0  0  0
    6.7353    2.1796   -1.2092 C   0  0  0  0  0  0  0  0  0  0  0  0
    5.4606    2.6524   -1.5380 C   0  0  0  0  0  0  0  0  0  0  0  0
    4.3183    1.9426   -1.1579 C   0  0  0  0  0  0  0  0  0  0  0  0
    4.4321    0.7408   -0.4369 C   0  0  0  0  0  0  0  0  0  0  0  0
    3.2191   -0.0145   -0.0317 C   0  0  0  0  0  0  0  0  0  0  0  0
    2.1391   -0.1543   -0.9173 C   0  0  0  0  0  0  0  0  0  0  0  0
    0.9965   -0.8635   -0.5429 C   0  0  0  0  0  0  0  0  0  0  0  0
    0.9016   -1.4525    0.7340 C   0  0  0  0  0  0  0  0  0  0  0  0
   -0.2501   -2.1748    1.1416 C   0  0  0  0  0  0  0  0  0  0  0  0
   -1.4108   -2.3357    0.2301 C   0  0  0  0  0  0  0  0  0  0  0  0
   -1.4882   -3.4895   -0.5714 C   0  0  0  0  0  0  0  0  0  0  0  0
   -0.4872   -4.4587   -0.4969 O   0  0  0  0  0  0  0  0  0  0  0  0
   -2.5668   -3.6665   -1.4447 C   0  0  0  0  0  0  0  0  0  0  0  0
   -3.5713   -2.7040   -1.5318 C   0  0  0  0  0  0  0  0  0  0  0  0
   -3.5130   -1.5462   -0.7443 C   0  0  0  0  0  0  0  0  0  0  0  0
   -4.5275   -0.5808   -0.8386 C   0  0  0  0  0  0  0  0  0  0  0  0
   -4.4846    0.5842   -0.0545 C   0  0  0  0  0  0  0  0  0  0  0  0
   -5.5598    1.6037   -0.1591 C   0  0  0  0  0  0  0  0  0  0  0  0
   -6.0909    1.9577   -1.4141 C   0  0  0  0  0  0  0  0  0  0  0  0
   -7.1024    2.9183   -1.5095 C   0  0  0  0  0  0  0  0  0  0  0  0
   -7.5950    3.5346   -0.3571 C   0  0  0  0  0  0  0  0  0  0  0  0
   -7.0766    3.1920    0.8937 C   0  0  0  0  0  0  0  0  0  0  0  0
   -6.0643    2.2327    0.9951 C   0  0  0  0  0  0  0  0  0  0  0  0
   -3.4104    0.7712    0.8299 C   0  0  0  0  0  0  0  0  0  0  0  0
   -2.3957   -0.1822    0.9317 C   0  0  0  0  0  0  0  0  0  0  0  0
   -2.4291   -1.3525    0.1484 C   0  0  0  0  0  0  0  0  0  0  0  0
   -0.2955   -2.7433    2.4347 C   0  0  0  0  0  0  0  0  0  0  0  0
   -1.4080   -3.4567    2.8873 O   0  0  0  0  0  0  0  0  0  0  0  0
    0.7898   -2.5954    3.3005 C   0  0  0  0  0  0  0  0  0  0  0  0
    1.9230   -1.8875    2.9062 C   0  0  0  0  0  0  0  0  0  0  0  0
    1.9908   -1.3134    1.6305 C   0  0  0  0  0  0  0  0  0  0  0  0
    3.1354   -0.5994    1.2427 C   0  0  0  0  0  0  0  0  0  0  0  0
    5.7139    0.2661   -0.1067 C   0  0  0  0  0  0  0  0  0  0  0  0
    6.8555    0.9769   -0.4886 C   0  0  0  0  0  0  0  0  0  0  0  0
    9.8737    3.3366   -1.7810 H   0  0  0  0  0  0  0  0  0  0  0  0
    9.4335    1.5881   -1.8173 H   0  0  0  0  0  0  0  0  0  0  0  0
    9.3749    2.5186   -0.2530 H   0  0  0  0  0  0  0  0  0  0  0  0
    5.3546    3.5783   -2.0891 H   0  0  0  0  0  0  0  0  0  0  0  0
    3.3452    2.3432   -1.4128 H   0  0  0  0  0  0  0  0  0  0  0  0
    2.1848    0.2717   -1.9119 H   0  0  0  0  0  0  0  0  0  0  0  0
    0.1926   -0.9475   -1.2627 H   0  0  0  0  0  0  0  0  0  0  0  0
   -0.5174   -5.2986   -1.0629 H   0  0  0  0  0  0  0  0  0  0  0  0
   -2.6267   -4.5544   -2.0612 H   0  0  0  0  0  0  0  0  0  0  0  0
   -4.3949   -2.8650   -2.2174 H   0  0  0  0  0  0  0  0  0  0  0  0
   -5.3614   -0.7453   -1.5115 H   0  0  0  0  0  0  0  0  0  0  0  0
   -5.7121    1.5052   -2.3219 H   0  0  0  0  0  0  0  0  0  0  0  0
   -7.5023    3.1875   -2.4786 H   0  0  0  0  0  0  0  0  0  0  0  0
   -8.3783    4.2776   -0.4333 H   0  0  0  0  0  0  0  0  0  0  0  0
   -7.4616    3.6677    1.7864 H   0  0  0  0  0  0  0  0  0  0  0  0
   -5.6887    1.9704    1.9761 H   0  0  0  0  0  0  0  0  0  0  0  0
   -3.3445    1.6678    1.4335 H   0  0  0  0  0  0  0  0  0  0  0  0
   -1.5862    0.0074    1.6247 H   0  0  0  0  0  0  0  0  0  0  0  0
   -2.2373   -3.5998    2.3245 H   0  0  0  0  0  0  0  0  0  0  0  0
    0.7525   -3.0319    4.2907 H   0  0  0  0  0  0  0  0  0  0  0  0
    2.7485   -1.7885    3.6013 H   0  0  0  0  0  0  0  0  0  0  0  0
    3.9557   -0.4831    1.9420 H   0  0  0  0  0  0  0  0  0  0  0  0
    5.8347   -0.6653    0.4324 H   0  0  0  0  0  0  0  0  0  0  0  0
    7.8257    0.5809   -0.2216 H   0  0  0  0  0  0  0  0  0  0  0  0
  1  2  1  0
  2  3  1  0
  3  4  2  0
  4  5  1  0
  5  6  2  0
  6  7  1  0
  7  8  2  0
  8  9  1  0
  9 10  2  0
 10 11  1  0
 11 12  1  0
 12 13  2  0
 13 14  1  0
 13 15  1  0
 15 16  2  0
 16 17  1  0
 17 18  2  0
 18 19  1  0
 19 20  1  0
 20 21  2  0
 21 22  1  0
 22 23  2  0
 23 24  1  0
 24 25  2  0
 19 26  2  0
 26 27  1  0
 27 28  2  0
 11 29  2  0
 29 30  1  0
 29 31  1  0
 31 32  2  0
 32 33  1  0
 33 34  2  0
  6 35  1  0
 35 36  2  0
 36  3  1  0
 34  7  1  0
 33 10  1  0
 28 12  1  0
 28 17  1  0
 25 20  1  0
  1 37  1  0
  1 38  1  0
  1 39  1  0
  4 40  1  0
  5 41  1  0
  8 42  1  0
  9 43  1  0
 14 44  1  0
 15 45  1  0
 16 46  1  0
 18 47  1  0
 21 48  1  0
 22 49  1  0
 23 50  1  0
 24 51  1  0
 25 52  1  0
 26 53  1  0
 27 54  1  0
 30 55  1  0
 31 56  1  0
 32 57  1  0
 34 58  1  0
 35 59  1  0
 36 60  1  0
M  END
