
     RDKit          3D

 60 65  0  0  0  0  0  0  0  0999 V2000
   -5.6477    4.7948   -2.0698 C   0  0  0  0  0  0  0  0  0  0  0  0
   -5.0137    3.6115   -2.5445 O   0  0  0  0  0  0  0  0  0  0  0  0
   -4.5391    2.5817   -1.7185 C   0  0  0  0  0  0  0  0  0  0  0  0
   -4.6495    2.6265   -0.3164 C   0  0  0  0  0  0  0  0  0  0  0  0
   -4.1608    1.5745    0.4639 C   0  0  0  0  0  0  0  0  0  0  0  0
   -3.5523    0.4597   -0.1394 C   0  0  0  0  0  0  0  0  0  0  0  0
   -3.0291   -0.6561    0.6898 C   0  0  0  0  0  0  0  0  0  0  0  0
   -3.7572   -1.1224    1.7955 C   0  0  0  0  0  0  0  0  0  0  0  0
   -3.2691   -2.1700    2.5764 C   0  0  0  0  0  0  0  0  0  0  0  0
   -2.0416   -2.7725    2.2685 C   0  0  0  0  0  0  0  0  0  0  0  0
   -1.5588   -3.8224    3.0594 C   0  0  0  0  0  0  0  0  0  0  0  0
   -0.3377   -4.4235    2.7618 C   0  0  0  0  0  0  0  0  0  0  0  0
    0.4230   -3.9915    1.6735 C   0  0  0  0  0  0  0  0  0  0  0  0
    1.6417   -4.6277    1.4261 O   0  0  0  0  0  0  0  0  0  0  0  0
   -0.0456   -2.9361    0.8587 C   0  0  0  0  0  0  0  0  0  0  0  0
    0.7706   -2.4860   -0.2975 C   0  0  0  0  0  0  0  0  0  0  0  0
    0.6119   -3.1194   -1.5509 C   0  0  0  0  0  0  0  0  0  0  0  0
   -0.2911   -4.1690   -1.7367 O   0  0  0  0  0  0  0  0  0  0  0  0
    1.3670   -2.6972   -2.6467 C   0  0  0  0  0  0  0  0  0  0  0  0
    2.2768   -1.6495   -2.5222 C   0  0  0  0  0  0  0  0  0  0  0  0
    2.4476   -1.0025   -1.2918 C   0  0  0  0  0  0  0  0  0  0  0  0
    3.3628    0.0554   -1.1768 C   0  0  0  0  0  0  0  0  0  0  0  0
    3.5465    0.7155    0.0495 C   0  0  0  0  0  0  0  0  0  0  0  0
    4.5141    1.8364    0.1653 C   0  0  0  0  0  0  0  0  0  0  0  0
    5.3439    1.9515    1.2969 C   0  0  0  0  0  0  0  0  0  0  0  0
    6.2539    3.0078    1.4033 C   0  0  0  0  0  0  0  0  0  0  0  0
    6.3454    3.9595    0.3852 C   0  0  0  0  0  0  0  0  0  0  0  0
    5.5272    3.8569   -0.7419 C   0  0  0  0  0  0  0  0  0  0  0  0
    4.6160    2.8022   -0.8541 C   0  0  0  0  0  0  0  0  0  0  0  0
    2.8013    0.3007    1.1644 C   0  0  0  0  0  0  0  0  0  0  0  0
    1.8884   -0.7502    1.0615 C   0  0  0  0  0  0  0  0  0  0  0  0
    1.6954   -1.4178   -0.1645 C   0  0  0  0  0  0  0  0  0  0  0  0
   -1.2884   -2.3186    1.1571 C   0  0  0  0  0  0  0  0  0  0  0  0
   -1.7975   -1.2578    0.3778 C   0  0  0  0  0  0  0  0  0  0  0  0
   -3.4450    0.4203   -1.5409 C   0  0  0  0  0  0  0  0  0  0  0  0
   -3.9348    1.4725   -2.3194 C   0  0  0  0  0  0  0  0  0  0  0  0
   -6.5734    4.5353   -1.5140 H   0  0  0  0  0  0  0  0  0  0  0  0
   -4.9543    5.3627   -1.4142 H   0  0  0  0  0  0  0  0  0  0  0  0
   -5.9201    5.4323   -2.9357 H   0  0  0  0  0  0  0  0  0  0  0  0
   -5.1076    3.4706    0.1806 H   0  0  0  0  0  0  0  0  0  0  0  0
   -4.2427    1.6416    1.5416 H   0  0  0  0  0  0  0  0  0  0  0  0
   -4.7161   -0.6869    2.0473 H   0  0  0  0  0  0  0  0  0  0  0  0
   -3.8546   -2.5117    3.4219 H   0  0  0  0  0  0  0  0  0  0  0  0
   -2.1261   -4.1784    3.9114 H   0  0  0  0  0  0  0  0  0  0  0  0
    0.0231   -5.2327    3.3841 H   0  0  0  0  0  0  0  0  0  0  0  0
    2.2531   -4.3690    0.6618 H   0  0  0  0  0  0  0  0  0  0  0  0
   -0.8786   -4.5283   -0.9948 H   0  0  0  0  0  0  0  0  0  0  0  0
    1.2444   -3.1849   -3.6055 H   0  0  0  0  0  0  0  0  0  0  0  0
    2.8464   -1.3428   -3.3916 H   0  0  0  0  0  0  0  0  0  0  0  0
    3.9457    0.3546   -2.0405 H   0  0  0  0  0  0  0  0  0  0  0  0
    5.3013    1.2158    2.0902 H   0  0  0  0  0  0  0  0  0  0  0  0
    6.8910    3.0864    2.2747 H   0  0  0  0  0  0  0  0  0  0  0  0
    7.0502    4.7765    0.4699 H   0  0  0  0  0  0  0  0  0  0  0  0
    5.5962    4.5972   -1.5284 H   0  0  0  0  0  0  0  0  0  0  0  0
    3.9795    2.7518   -1.7286 H   0  0  0  0  0  0  0  0  0  0  0  0
    2.9113    0.8033    2.1173 H   0  0  0  0  0  0  0  0  0  0  0  0
    1.3345   -1.0304    1.9482 H   0  0  0  0  0  0  0  0  0  0  0  0
   -1.2328   -0.8789   -0.4642 H   0  0  0  0  0  0  0  0  0  0  0  0
   -2.9973   -0.4320   -2.0367 H   0  0  0  0  0  0  0  0  0  0  0  0
   -3.8471    1.4243   -3.3974 H   0  0  0  0  0  0  0  0  0  0  0  0
  1  2  1  0
  2  3  1  0
  3  4  2  0
  4  5  1  0
  5  6  2  0
  6  7  1  0
  7  8  2  0
  8  9  1  0
  9 10  2  0
 10 11  1  0
 11 12  2  0
 12 13  1  0
 13 14  1  0
 13 15  2  0
 15 16  1  0
 16 17  2  0
 17 18  1  0
 17 19  1  0
 19 20  2  0
 20 21  1  0
 21 22  2  0
 22 23  1  0
 23 24  1  0
 24 25  2  0
 25 26  1  0
 26 27  2  0
 27 28  1  0
 28 29  2  0
 23 30  2  0
 30 31  1  0
 31 32  2  0
 15 33  1  0
 33 34  2  0
  6 35  1  0
 35 36  2  0
 36  3  1  0
 34  7  1  0
 33 10  1  0
 32 16  1  0
 32 21  1  0
 29 24  1  0
  1 37  1  0
  1 38  1  0
  1 39  1  0
  4 40  1  0
  5 41  1  0
  8 42  1  0
  9 43  1  0
 11 44  1  0
 12 45  1  0
 14 46  1  0
 18 47  1  0
 19 48  1  0
 20 49  1  0
 22 50  1  0
 25 51  1  0
 26 52  1  0
 27 53  1  0
 28 54  1  0
 29 55  1  0
 30 56  1  0
 31 57  1  0
 34 58  1  0
 35 59  1  0
 36 60  1  0
M  END
