
     RDKit          3D

132137  0  0  0  0  0  0  0  0999 V2000
   -9.2349    5.5430    0.6637 C   0  0  0  0  0  0  0  0  0  0  0  0
  -10.5232    4.7703    0.9485 C   0  0  0  0  0  0  0  0  0  0  0  0
  -11.1925    4.2434   -0.3329 C   0  0  0  0  0  0  0  0  0  0  0  0
  -10.4722    3.0227   -0.9482 C   0  0  0  0  0  0  0  0  0  0  0  0
  -11.1666    1.6805   -0.6509 C   0  0  0  0  0  0  0  0  0  0  0  0
  -11.1425    1.2795    0.8326 C   0  0  0  0  0  0  0  0  0  0  0  0
   -9.8299    1.3829    1.3865 O   0  0  0  0  0  0  0  0  0  0  0  0
   -8.7230    0.6085    1.0097 C   0  0  0  0  0  0  0  0  0  0  0  0
   -8.8465   -0.6160    0.3341 C   0  0  0  0  0  0  0  0  0  0  0  0
   -7.7062   -1.3269   -0.0466 C   0  0  0  0  0  0  0  0  0  0  0  0
   -6.4196   -0.8250    0.2356 C   0  0  0  0  0  0  0  0  0  0  0  0
   -5.2584   -1.4973   -0.1793 O   0  0  0  0  0  0  0  0  0  0  0  0
   -5.2438   -2.7480   -0.8623 C   0  0  0  0  0  0  0  0  0  0  0  0
   -3.7930   -3.1667   -1.1103 C   0  0  0  0  0  0  0  0  0  0  0  0
   -3.6775   -4.4487   -1.9505 C   0  0  0  0  0  0  0  0  0  0  0  0
   -4.0825   -5.7078   -1.1654 C   0  0  0  0  0  0  0  0  0  0  0  0
   -3.9103   -6.9938   -1.9899 C   0  0  0  0  0  0  0  0  0  0  0  0
   -2.4500   -7.4327   -2.1026 C   0  0  0  0  0  0  0  0  0  0  0  0
   -6.2942    0.3951    0.9338 C   0  0  0  0  0  0  0  0  0  0  0  0
   -4.9657    0.9808    1.2393 C   0  0  0  0  0  0  0  0  0  0  0  0
   -3.9576    0.2125    1.8400 C   0  0  0  0  0  0  0  0  0  0  0  0
   -2.7247    0.7850    2.1633 C   0  0  0  0  0  0  0  0  0  0  0  0
   -2.4760    2.1492    1.9079 C   0  0  0  0  0  0  0  0  0  0  0  0
   -1.2438    2.7657    2.2482 C   0  0  0  0  0  0  0  0  0  0  0  0
   -0.1381    1.9928    2.8705 C   0  0  0  0  0  0  0  0  0  0  0  0
   -0.1605    1.7673    4.2589 C   0  0  0  0  0  0  0  0  0  0  0  0
   -1.2563    2.1836    5.0158 O   0  0  0  0  0  0  0  0  0  0  0  0
    0.9208    1.1367    4.8842 C   0  0  0  0  0  0  0  0  0  0  0  0
    2.0385    0.7491    4.1460 C   0  0  0  0  0  0  0  0  0  0  0  0
    2.0832    0.9664    2.7626 C   0  0  0  0  0  0  0  0  0  0  0  0
    3.2313    0.6218    2.0300 C   0  0  0  0  0  0  0  0  0  0  0  0
    3.2907    0.8496    0.6449 C   0  0  0  0  0  0  0  0  0  0  0  0
    4.5437    0.6082   -0.1162 C   0  0  0  0  0  0  0  0  0  0  0  0
    5.0163    1.6138   -0.9791 C   0  0  0  0  0  0  0  0  0  0  0  0
    6.1929    1.4489   -1.7115 C   0  0  0  0  0  0  0  0  0  0  0  0
    6.5829    2.4890   -2.5714 O   0  0  0  0  0  0  0  0  0  0  0  0
    7.7866    2.5288   -3.3371 C   0  0  0  0  0  0  0  0  0  0  0  0
    8.9752    2.8997   -2.4468 C   0  0  0  0  0  0  0  0  0  0  0  0
   10.2724    2.9692   -3.2656 C   0  0  0  0  0  0  0  0  0  0  0  0
   11.5055    3.2598   -2.3958 C   0  0  0  0  0  0  0  0  0  0  0  0
   11.5338    4.7051   -1.8763 C   0  0  0  0  0  0  0  0  0  0  0  0
   12.8336    4.9953   -1.1320 C   0  0  0  0  0  0  0  0  0  0  0  0
    6.9254    0.2593   -1.5673 C   0  0  0  0  0  0  0  0  0  0  0  0
    6.4730   -0.7480   -0.7122 C   0  0  0  0  0  0  0  0  0  0  0  0
    5.2711   -0.5958    0.0101 C   0  0  0  0  0  0  0  0  0  0  0  0
    4.7703   -1.6156    0.8416 O   0  0  0  0  0  0  0  0  0  0  0  0
    5.3933   -2.8813    1.0697 C   0  0  0  0  0  0  0  0  0  0  0  0
    5.1528   -3.8306   -0.1147 C   0  0  0  0  0  0  0  0  0  0  0  0
    6.1014   -5.0398   -0.1079 C   0  0  0  0  0  0  0  0  0  0  0  0
    5.8019   -6.0188    1.0390 C   0  0  0  0  0  0  0  0  0  0  0  0
    6.8026   -7.1849    1.0914 C   0  0  0  0  0  0  0  0  0  0  0  0
    6.6105   -8.1849   -0.0491 C   0  0  0  0  0  0  0  0  0  0  0  0
    2.1729    1.3932   -0.0060 C   0  0  0  0  0  0  0  0  0  0  0  0
    1.0323    1.7491    0.7125 C   0  0  0  0  0  0  0  0  0  0  0  0
    0.9788    1.5679    2.1079 C   0  0  0  0  0  0  0  0  0  0  0  0
   -1.0543    4.1417    1.9751 C   0  0  0  0  0  0  0  0  0  0  0  0
    0.1305    4.8044    2.3073 O   0  0  0  0  0  0  0  0  0  0  0  0
   -2.0667    4.8788    1.3590 C   0  0  0  0  0  0  0  0  0  0  0  0
   -3.2744    4.2775    1.0170 C   0  0  0  0  0  0  0  0  0  0  0  0
   -3.4929    2.9224    1.2928 C   0  0  0  0  0  0  0  0  0  0  0  0
   -4.7205    2.3338    0.9609 C   0  0  0  0  0  0  0  0  0  0  0  0
   -7.4516    1.0913    1.3221 C   0  0  0  0  0  0  0  0  0  0  0  0
   -8.4596    4.8810    0.2258 H   0  0  0  0  0  0  0  0  0  0  0  0
   -8.8377    5.9593    1.6135 H   0  0  0  0  0  0  0  0  0  0  0  0
   -9.4339    6.3854   -0.0327 H   0  0  0  0  0  0  0  0  0  0  0  0
  -10.3088    3.9394    1.6509 H   0  0  0  0  0  0  0  0  0  0  0  0
  -11.2320    5.4589    1.4559 H   0  0  0  0  0  0  0  0  0  0  0  0
  -11.2269    5.0639   -1.0837 H   0  0  0  0  0  0  0  0  0  0  0  0
  -12.2514    3.9896   -0.1057 H   0  0  0  0  0  0  0  0  0  0  0  0
  -10.4658    3.1496   -2.0528 H   0  0  0  0  0  0  0  0  0  0  0  0
   -9.4070    2.9737   -0.6407 H   0  0  0  0  0  0  0  0  0  0  0  0
  -10.6620    0.8903   -1.2453 H   0  0  0  0  0  0  0  0  0  0  0  0
  -12.2220    1.7210   -0.9995 H   0  0  0  0  0  0  0  0  0  0  0  0
  -11.8175    1.9541    1.4014 H   0  0  0  0  0  0  0  0  0  0  0  0
  -11.5365    0.2490    0.9587 H   0  0  0  0  0  0  0  0  0  0  0  0
   -9.8170   -1.0280    0.0982 H   0  0  0  0  0  0  0  0  0  0  0  0
   -7.8371   -2.2611   -0.5743 H   0  0  0  0  0  0  0  0  0  0  0  0
   -5.7739   -2.6444   -1.8348 H   0  0  0  0  0  0  0  0  0  0  0  0
   -5.7551   -3.5100   -0.2364 H   0  0  0  0  0  0  0  0  0  0  0  0
   -3.2694   -3.2983   -0.1379 H   0  0  0  0  0  0  0  0  0  0  0  0
   -3.2809   -2.3441   -1.6568 H   0  0  0  0  0  0  0  0  0  0  0  0
   -2.6199   -4.5425   -2.2740 H   0  0  0  0  0  0  0  0  0  0  0  0
   -4.3021   -4.3563   -2.8659 H   0  0  0  0  0  0  0  0  0  0  0  0
   -5.1537   -5.6329   -0.8856 H   0  0  0  0  0  0  0  0  0  0  0  0
   -3.4927   -5.7808   -0.2259 H   0  0  0  0  0  0  0  0  0  0  0  0
   -4.4779   -7.8114   -1.4926 H   0  0  0  0  0  0  0  0  0  0  0  0
   -4.3407   -6.8602   -3.0068 H   0  0  0  0  0  0  0  0  0  0  0  0
   -2.3973   -8.4003   -2.6476 H   0  0  0  0  0  0  0  0  0  0  0  0
   -2.0098   -7.5743   -1.0918 H   0  0  0  0  0  0  0  0  0  0  0  0
   -1.8522   -6.6864   -2.6653 H   0  0  0  0  0  0  0  0  0  0  0  0
   -4.1320   -0.8289    2.0814 H   0  0  0  0  0  0  0  0  0  0  0  0
   -1.9769    0.1552    2.6278 H   0  0  0  0  0  0  0  0  0  0  0  0
   -1.2950    2.0433    6.0178 H   0  0  0  0  0  0  0  0  0  0  0  0
    0.9054    0.9656    5.9522 H   0  0  0  0  0  0  0  0  0  0  0  0
    2.8729    0.2867    4.6601 H   0  0  0  0  0  0  0  0  0  0  0  0
    4.0961    0.2207    2.5462 H   0  0  0  0  0  0  0  0  0  0  0  0
    4.4716    2.5458   -1.0773 H   0  0  0  0  0  0  0  0  0  0  0  0
    7.6695    3.3092   -4.1181 H   0  0  0  0  0  0  0  0  0  0  0  0
    7.9506    1.5618   -3.8586 H   0  0  0  0  0  0  0  0  0  0  0  0
    8.7661    3.8851   -1.9805 H   0  0  0  0  0  0  0  0  0  0  0  0
    9.0876    2.1484   -1.6376 H   0  0  0  0  0  0  0  0  0  0  0  0
   10.4288    1.9895   -3.7684 H   0  0  0  0  0  0  0  0  0  0  0  0
   10.1813    3.7433   -4.0583 H   0  0  0  0  0  0  0  0  0  0  0  0
   12.4113    3.0845   -3.0174 H   0  0  0  0  0  0  0  0  0  0  0  0
   11.5407    2.5495   -1.5414 H   0  0  0  0  0  0  0  0  0  0  0  0
   11.4415    5.4144   -2.7282 H   0  0  0  0  0  0  0  0  0  0  0  0
   10.6865    4.8769   -1.1792 H   0  0  0  0  0  0  0  0  0  0  0  0
   13.7039    4.8724   -1.8104 H   0  0  0  0  0  0  0  0  0  0  0  0
   12.8207    6.0402   -0.7572 H   0  0  0  0  0  0  0  0  0  0  0  0
   12.9440    4.3077   -0.2659 H   0  0  0  0  0  0  0  0  0  0  0  0
    7.8433    0.0953   -2.1135 H   0  0  0  0  0  0  0  0  0  0  0  0
    7.0649   -1.6491   -0.6366 H   0  0  0  0  0  0  0  0  0  0  0  0
    6.4767   -2.7436    1.2772 H   0  0  0  0  0  0  0  0  0  0  0  0
    4.9395   -3.3242    1.9797 H   0  0  0  0  0  0  0  0  0  0  0  0
    5.3088   -3.2817   -1.0680 H   0  0  0  0  0  0  0  0  0  0  0  0
    4.0961   -4.1751   -0.1069 H   0  0  0  0  0  0  0  0  0  0  0  0
    7.1533   -4.6857   -0.0444 H   0  0  0  0  0  0  0  0  0  0  0  0
    5.9816   -5.5665   -1.0785 H   0  0  0  0  0  0  0  0  0  0  0  0
    4.7666   -6.4129    0.9405 H   0  0  0  0  0  0  0  0  0  0  0  0
    5.8677   -5.4810    2.0076 H   0  0  0  0  0  0  0  0  0  0  0  0
    6.6626   -7.7252    2.0524 H   0  0  0  0  0  0  0  0  0  0  0  0
    7.8438   -6.7968    1.0743 H   0  0  0  0  0  0  0  0  0  0  0  0
    7.2897   -9.0496    0.1024 H   0  0  0  0  0  0  0  0  0  0  0  0
    6.8569   -7.7203   -1.0271 H   0  0  0  0  0  0  0  0  0  0  0  0
    5.5637   -8.5575   -0.0678 H   0  0  0  0  0  0  0  0  0  0  0  0
    2.1891    1.5597   -1.0760 H   0  0  0  0  0  0  0  0  0  0  0  0
    0.2024    2.1811    0.1679 H   0  0  0  0  0  0  0  0  0  0  0  0
    0.9050    4.3531    2.7772 H   0  0  0  0  0  0  0  0  0  0  0  0
   -1.9168    5.9296    1.1460 H   0  0  0  0  0  0  0  0  0  0  0  0
   -4.0432    4.8756    0.5424 H   0  0  0  0  0  0  0  0  0  0  0  0
   -5.4912    2.9304    0.4844 H   0  0  0  0  0  0  0  0  0  0  0  0
   -7.3685    2.0283    1.8606 H   0  0  0  0  0  0  0  0  0  0  0  0
  1  2  1  0
  2  3  1  0
  3  4  1  0
  4  5  1  0
  5  6  1  0
  6  7  1  0
  7  8  1  0
  8  9  2  0
  9 10  1  0
 10 11  2  0
 11 12  1  0
 12 13  1  0
 13 14  1  0
 14 15  1  0
 15 16  1  0
 16 17  1  0
 17 18  1  0
 11 19  1  0
 19 20  1  0
 20 21  2  0
 21 22  1  0
 22 23  2  0
 23 24  1  0
 24 25  1  0
 25 26  2  0
 26 27  1  0
 26 28  1  0
 28 29  2  0
 29 30  1  0
 30 31  2  0
 31 32  1  0
 32 33  1  0
 33 34  2  0
 34 35  1  0
 35 36  1  0
 36 37  1  0
 37 38  1  0
 38 39  1  0
 39 40  1  0
 40 41  1  0
 41 42  1  0
 35 43  2  0
 43 44  1  0
 44 45  2  0
 45 46  1  0
 46 47  1  0
 47 48  1  0
 48 49  1  0
 49 50  1  0
 50 51  1  0
 51 52  1  0
 32 53  2  0
 53 54  1  0
 54 55  2  0
 24 56  2  0
 56 57  1  0
 56 58  1  0
 58 59  2  0
 59 60  1  0
 60 61  2  0
 19 62  2  0
 62  8  1  0
 61 20  1  0
 60 23  1  0
 55 25  1  0
 55 30  1  0
 45 33  1  0
  1 63  1  0
  1 64  1  0
  1 65  1  0
  2 66  1  0
  2 67  1  0
  3 68  1  0
  3 69  1  0
  4 70  1  0
  4 71  1  0
  5 72  1  0
  5 73  1  0
  6 74  1  0
  6 75  1  0
  9 76  1  0
 10 77  1  0
 13 78  1  0
 13 79  1  0
 14 80  1  0
 14 81  1  0
 15 82  1  0
 15 83  1  0
 16 84  1  0
 16 85  1  0
 17 86  1  0
 17 87  1  0
 18 88  1  0
 18 89  1  0
 18 90  1  0
 21 91  1  0
 22 92  1  0
 27 93  1  0
 28 94  1  0
 29 95  1  0
 31 96  1  0
 34 97  1  0
 37 98  1  0
 37 99  1  0
 38100  1  0
 38101  1  0
 39102  1  0
 39103  1  0
 40104  1  0
 40105  1  0
 41106  1  0
 41107  1  0
 42108  1  0
 42109  1  0
 42110  1  0
 43111  1  0
 44112  1  0
 47113  1  0
 47114  1  0
 48115  1  0
 48116  1  0
 49117  1  0
 49118  1  0
 50119  1  0
 50120  1  0
 51121  1  0
 51122  1  0
 52123  1  0
 52124  1  0
 52125  1  0
 53126  1  0
 54127  1  0
 57128  1  0
 58129  1  0
 59130  1  0
 61131  1  0
 62132  1  0
M  END
