
     RDKit          3D

132137  0  0  0  0  0  0  0  0999 V2000
   -9.1116    0.2085    7.2520 C   0  0  0  0  0  0  0  0  0  0  0  0
   -8.8311    0.8741    5.9051 C   0  0  0  0  0  0  0  0  0  0  0  0
   -7.4403    0.5284    5.3522 C   0  0  0  0  0  0  0  0  0  0  0  0
   -6.3045    1.1537    6.1808 C   0  0  0  0  0  0  0  0  0  0  0  0
   -4.9427    1.0970    5.4687 C   0  0  0  0  0  0  0  0  0  0  0  0
   -4.3724   -0.3257    5.3563 C   0  0  0  0  0  0  0  0  0  0  0  0
   -5.0551   -1.0876    4.3598 O   0  0  0  0  0  0  0  0  0  0  0  0
   -4.9232   -0.9244    2.9711 C   0  0  0  0  0  0  0  0  0  0  0  0
   -5.7476   -1.6868    2.1378 C   0  0  0  0  0  0  0  0  0  0  0  0
   -5.6487   -1.5831    0.7484 C   0  0  0  0  0  0  0  0  0  0  0  0
   -4.7142   -0.7081    0.1660 C   0  0  0  0  0  0  0  0  0  0  0  0
   -4.5761   -0.5811   -1.2257 O   0  0  0  0  0  0  0  0  0  0  0  0
   -5.2630   -1.3768   -2.1858 C   0  0  0  0  0  0  0  0  0  0  0  0
   -4.8010   -0.9769   -3.5877 C   0  0  0  0  0  0  0  0  0  0  0  0
   -5.5631   -1.7099   -4.7054 C   0  0  0  0  0  0  0  0  0  0  0  0
   -5.4083   -3.2449   -4.7033 C   0  0  0  0  0  0  0  0  0  0  0  0
   -3.9585   -3.7517   -4.7985 C   0  0  0  0  0  0  0  0  0  0  0  0
   -3.2857   -3.3811   -6.1192 C   0  0  0  0  0  0  0  0  0  0  0  0
   -3.8855    0.0635    0.9989 C   0  0  0  0  0  0  0  0  0  0  0  0
   -2.8755    0.9619    0.4097 C   0  0  0  0  0  0  0  0  0  0  0  0
   -3.1127    2.3407    0.4095 C   0  0  0  0  0  0  0  0  0  0  0  0
   -2.2051    3.2199   -0.1936 C   0  0  0  0  0  0  0  0  0  0  0  0
   -2.4659    4.5998   -0.2072 C   0  0  0  0  0  0  0  0  0  0  0  0
   -1.5715    5.4792   -0.8199 C   0  0  0  0  0  0  0  0  0  0  0  0
   -0.4123    4.9918   -1.4242 C   0  0  0  0  0  0  0  0  0  0  0  0
   -0.1384    3.6225   -1.4180 C   0  0  0  0  0  0  0  0  0  0  0  0
   -1.0270    2.7162   -0.8008 C   0  0  0  0  0  0  0  0  0  0  0  0
   -0.7774    1.3224   -0.7821 C   0  0  0  0  0  0  0  0  0  0  0  0
    0.4612    0.7501   -1.3682 C   0  0  0  0  0  0  0  0  0  0  0  0
    1.6558    0.8355   -0.6293 C   0  0  0  0  0  0  0  0  0  0  0  0
    1.6290    1.4580    0.6239 O   0  0  0  0  0  0  0  0  0  0  0  0
    2.8472    0.2857   -1.1467 C   0  0  0  0  0  0  0  0  0  0  0  0
    4.1257    0.4062   -0.4164 C   0  0  0  0  0  0  0  0  0  0  0  0
    4.7152   -0.7376    0.1413 C   0  0  0  0  0  0  0  0  0  0  0  0
    5.9127   -0.6375    0.8729 C   0  0  0  0  0  0  0  0  0  0  0  0
    6.5182   -1.7478    1.4799 O   0  0  0  0  0  0  0  0  0  0  0  0
    5.9782   -3.0669    1.4691 C   0  0  0  0  0  0  0  0  0  0  0  0
    6.8622   -3.9820    2.3128 C   0  0  0  0  0  0  0  0  0  0  0  0
    6.3068   -5.4136    2.3404 C   0  0  0  0  0  0  0  0  0  0  0  0
    7.2016   -6.3782    3.1347 C   0  0  0  0  0  0  0  0  0  0  0  0
    7.1041   -6.1575    4.6515 C   0  0  0  0  0  0  0  0  0  0  0  0
    7.9229   -7.1969    5.4113 C   0  0  0  0  0  0  0  0  0  0  0  0
    6.5241    0.6119    1.0148 C   0  0  0  0  0  0  0  0  0  0  0  0
    5.9499    1.7533    0.4513 C   0  0  0  0  0  0  0  0  0  0  0  0
    4.7437    1.6616   -0.2669 C   0  0  0  0  0  0  0  0  0  0  0  0
    4.1315    2.7863   -0.8420 O   0  0  0  0  0  0  0  0  0  0  0  0
    4.6214    4.1202   -0.7421 C   0  0  0  0  0  0  0  0  0  0  0  0
    3.6835    5.0766   -1.4822 C   0  0  0  0  0  0  0  0  0  0  0  0
    3.4431    4.6942   -2.9559 C   0  0  0  0  0  0  0  0  0  0  0  0
    4.7110    4.6359   -3.8262 C   0  0  0  0  0  0  0  0  0  0  0  0
    5.4418    5.9837   -3.9105 C   0  0  0  0  0  0  0  0  0  0  0  0
    6.5935    5.9234   -4.9101 C   0  0  0  0  0  0  0  0  0  0  0  0
    2.8308   -0.3762   -2.3803 C   0  0  0  0  0  0  0  0  0  0  0  0
    1.6478   -0.4726   -3.1233 C   0  0  0  0  0  0  0  0  0  0  0  0
    1.6483   -1.1296   -4.3647 C   0  0  0  0  0  0  0  0  0  0  0  0
    0.4750   -1.2157   -5.1159 C   0  0  0  0  0  0  0  0  0  0  0  0
   -0.7052   -0.6449   -4.6391 C   0  0  0  0  0  0  0  0  0  0  0  0
   -0.7235    0.0072   -3.4045 C   0  0  0  0  0  0  0  0  0  0  0  0
    0.4500    0.0995   -2.6256 C   0  0  0  0  0  0  0  0  0  0  0  0
   -1.7010    0.4496   -0.1773 C   0  0  0  0  0  0  0  0  0  0  0  0
   -1.4254   -0.9223   -0.1649 O   0  0  0  0  0  0  0  0  0  0  0  0
   -3.9924   -0.0414    2.3926 C   0  0  0  0  0  0  0  0  0  0  0  0
   -8.4415    0.6153    8.0380 H   0  0  0  0  0  0  0  0  0  0  0  0
  -10.1612    0.4109    7.5528 H   0  0  0  0  0  0  0  0  0  0  0  0
   -8.9711   -0.8913    7.1783 H   0  0  0  0  0  0  0  0  0  0  0  0
   -9.5957    0.5243    5.1775 H   0  0  0  0  0  0  0  0  0  0  0  0
   -8.9415    1.9762    6.0035 H   0  0  0  0  0  0  0  0  0  0  0  0
   -7.3276   -0.5762    5.3233 H   0  0  0  0  0  0  0  0  0  0  0  0
   -7.3820    0.9052    4.3080 H   0  0  0  0  0  0  0  0  0  0  0  0
   -6.2272    0.6468    7.1668 H   0  0  0  0  0  0  0  0  0  0  0  0
   -6.5409    2.2235    6.3702 H   0  0  0  0  0  0  0  0  0  0  0  0
   -4.2238    1.7046    6.0599 H   0  0  0  0  0  0  0  0  0  0  0  0
   -5.0191    1.5712    4.4671 H   0  0  0  0  0  0  0  0  0  0  0  0
   -4.4775   -0.8444    6.3324 H   0  0  0  0  0  0  0  0  0  0  0  0
   -3.2850   -0.2913    5.1314 H   0  0  0  0  0  0  0  0  0  0  0  0
   -6.4693   -2.3674    2.5716 H   0  0  0  0  0  0  0  0  0  0  0  0
   -6.3022   -2.1894    0.1365 H   0  0  0  0  0  0  0  0  0  0  0  0
   -5.0270   -2.4459   -2.0007 H   0  0  0  0  0  0  0  0  0  0  0  0
   -6.3579   -1.2109   -2.0918 H   0  0  0  0  0  0  0  0  0  0  0  0
   -4.9712    0.1145   -3.7143 H   0  0  0  0  0  0  0  0  0  0  0  0
   -3.7086   -1.1436   -3.6867 H   0  0  0  0  0  0  0  0  0  0  0  0
   -5.2330   -1.3072   -5.6860 H   0  0  0  0  0  0  0  0  0  0  0  0
   -6.6448   -1.4685   -4.6161 H   0  0  0  0  0  0  0  0  0  0  0  0
   -5.9873   -3.6554   -5.5592 H   0  0  0  0  0  0  0  0  0  0  0  0
   -5.8748   -3.6620   -3.7857 H   0  0  0  0  0  0  0  0  0  0  0  0
   -3.9744   -4.8604   -4.7190 H   0  0  0  0  0  0  0  0  0  0  0  0
   -3.3523   -3.3788   -3.9470 H   0  0  0  0  0  0  0  0  0  0  0  0
   -3.8835   -3.7575   -6.9759 H   0  0  0  0  0  0  0  0  0  0  0  0
   -2.2759   -3.8412   -6.1608 H   0  0  0  0  0  0  0  0  0  0  0  0
   -3.1686   -2.2823   -6.2070 H   0  0  0  0  0  0  0  0  0  0  0  0
   -4.0196    2.7249    0.8641 H   0  0  0  0  0  0  0  0  0  0  0  0
   -3.3632    4.9975    0.2524 H   0  0  0  0  0  0  0  0  0  0  0  0
   -1.7791    6.5414   -0.8300 H   0  0  0  0  0  0  0  0  0  0  0  0
    0.2753    5.6771   -1.9030 H   0  0  0  0  0  0  0  0  0  0  0  0
    0.7662    3.2813   -1.9029 H   0  0  0  0  0  0  0  0  0  0  0  0
    2.4360    1.5164    1.2324 H   0  0  0  0  0  0  0  0  0  0  0  0
    4.2249   -1.6940    0.0165 H   0  0  0  0  0  0  0  0  0  0  0  0
    5.9381   -3.4420    0.4233 H   0  0  0  0  0  0  0  0  0  0  0  0
    4.9522   -3.0511    1.8982 H   0  0  0  0  0  0  0  0  0  0  0  0
    6.9083   -3.5715    3.3436 H   0  0  0  0  0  0  0  0  0  0  0  0
    7.8894   -3.9873    1.8876 H   0  0  0  0  0  0  0  0  0  0  0  0
    6.2375   -5.7884    1.2953 H   0  0  0  0  0  0  0  0  0  0  0  0
    5.2797   -5.4157    2.7668 H   0  0  0  0  0  0  0  0  0  0  0  0
    6.8768   -7.4167    2.9035 H   0  0  0  0  0  0  0  0  0  0  0  0
    8.2578   -6.2743    2.8023 H   0  0  0  0  0  0  0  0  0  0  0  0
    7.4864   -5.1497    4.9175 H   0  0  0  0  0  0  0  0  0  0  0  0
    6.0434   -6.2307    4.9757 H   0  0  0  0  0  0  0  0  0  0  0  0
    8.9937   -7.1304    5.1231 H   0  0  0  0  0  0  0  0  0  0  0  0
    7.5470   -8.2196    5.1947 H   0  0  0  0  0  0  0  0  0  0  0  0
    7.8372   -7.0119    6.5032 H   0  0  0  0  0  0  0  0  0  0  0  0
    7.4478    0.6994    1.5728 H   0  0  0  0  0  0  0  0  0  0  0  0
    6.4496    2.7028    0.5846 H   0  0  0  0  0  0  0  0  0  0  0  0
    4.6619    4.4191    0.3277 H   0  0  0  0  0  0  0  0  0  0  0  0
    5.6466    4.1858   -1.1640 H   0  0  0  0  0  0  0  0  0  0  0  0
    4.0815    6.1110   -1.4143 H   0  0  0  0  0  0  0  0  0  0  0  0
    2.7025    5.0753   -0.9592 H   0  0  0  0  0  0  0  0  0  0  0  0
    2.9438    3.7018   -2.9978 H   0  0  0  0  0  0  0  0  0  0  0  0
    2.7350    5.4281   -3.3990 H   0  0  0  0  0  0  0  0  0  0  0  0
    5.4008    3.8515   -3.4480 H   0  0  0  0  0  0  0  0  0  0  0  0
    4.4024    4.3299   -4.8499 H   0  0  0  0  0  0  0  0  0  0  0  0
    5.8583    6.2529   -2.9168 H   0  0  0  0  0  0  0  0  0  0  0  0
    4.7320    6.7793   -4.2269 H   0  0  0  0  0  0  0  0  0  0  0  0
    7.1135    6.9044   -4.9382 H   0  0  0  0  0  0  0  0  0  0  0  0
    7.3242    5.1424   -4.6090 H   0  0  0  0  0  0  0  0  0  0  0  0
    6.2109    5.6955   -5.9280 H   0  0  0  0  0  0  0  0  0  0  0  0
    3.7500   -0.8023   -2.7684 H   0  0  0  0  0  0  0  0  0  0  0  0
    2.5567   -1.5746   -4.7543 H   0  0  0  0  0  0  0  0  0  0  0  0
    0.4814   -1.7215   -6.0729 H   0  0  0  0  0  0  0  0  0  0  0  0
   -1.6087   -0.7024   -5.2302 H   0  0  0  0  0  0  0  0  0  0  0  0
   -1.6578    0.4405   -3.0714 H   0  0  0  0  0  0  0  0  0  0  0  0
   -2.0324   -1.6053    0.2720 H   0  0  0  0  0  0  0  0  0  0  0  0
   -3.3335    0.5527    3.0106 H   0  0  0  0  0  0  0  0  0  0  0  0
  1  2  1  0
  2  3  1  0
  3  4  1  0
  4  5  1  0
  5  6  1  0
  6  7  1  0
  7  8  1  0
  8  9  2  0
  9 10  1  0
 10 11  2  0
 11 12  1  0
 12 13  1  0
 13 14  1  0
 14 15  1  0
 15 16  1  0
 16 17  1  0
 17 18  1  0
 11 19  1  0
 19 20  1  0
 20 21  2  0
 21 22  1  0
 22 23  2  0
 23 24  1  0
 24 25  2  0
 25 26  1  0
 26 27  2  0
 27 28  1  0
 28 29  1  0
 29 30  2  0
 30 31  1  0
 30 32  1  0
 32 33  1  0
 33 34  2  0
 34 35  1  0
 35 36  1  0
 36 37  1  0
 37 38  1  0
 38 39  1  0
 39 40  1  0
 40 41  1  0
 41 42  1  0
 35 43  2  0
 43 44  1  0
 44 45  2  0
 45 46  1  0
 46 47  1  0
 47 48  1  0
 48 49  1  0
 49 50  1  0
 50 51  1  0
 51 52  1  0
 32 53  2  0
 53 54  1  0
 54 55  2  0
 55 56  1  0
 56 57  2  0
 57 58  1  0
 58 59  2  0
 28 60  2  0
 60 61  1  0
 19 62  2  0
 62  8  1  0
 60 20  1  0
 27 22  1  0
 59 29  1  0
 45 33  1  0
 59 54  1  0
  1 63  1  0
  1 64  1  0
  1 65  1  0
  2 66  1  0
  2 67  1  0
  3 68  1  0
  3 69  1  0
  4 70  1  0
  4 71  1  0
  5 72  1  0
  5 73  1  0
  6 74  1  0
  6 75  1  0
  9 76  1  0
 10 77  1  0
 13 78  1  0
 13 79  1  0
 14 80  1  0
 14 81  1  0
 15 82  1  0
 15 83  1  0
 16 84  1  0
 16 85  1  0
 17 86  1  0
 17 87  1  0
 18 88  1  0
 18 89  1  0
 18 90  1  0
 21 91  1  0
 23 92  1  0
 24 93  1  0
 25 94  1  0
 26 95  1  0
 31 96  1  0
 34 97  1  0
 37 98  1  0
 37 99  1  0
 38100  1  0
 38101  1  0
 39102  1  0
 39103  1  0
 40104  1  0
 40105  1  0
 41106  1  0
 41107  1  0
 42108  1  0
 42109  1  0
 42110  1  0
 43111  1  0
 44112  1  0
 47113  1  0
 47114  1  0
 48115  1  0
 48116  1  0
 49117  1  0
 49118  1  0
 50119  1  0
 50120  1  0
 51121  1  0
 51122  1  0
 52123  1  0
 52124  1  0
 52125  1  0
 53126  1  0
 55127  1  0
 56128  1  0
 57129  1  0
 58130  1  0
 61131  1  0
 62132  1  0
M  END
