
     RDKit          3D

 49 51  0  0  0  0  0  0  0  0999 V2000
   -0.7634    5.3035    3.1834 C   0  0  0  0  0  0  0  0  0  0  0  0
   -1.0727    4.0819    2.5513 O   0  0  0  0  0  0  0  0  0  0  0  0
   -0.8652    4.2076    1.1608 C   0  0  0  0  0  0  0  0  0  0  0  0
   -1.1667    2.8879    0.5027 C   0  0  0  0  0  0  0  0  0  0  0  0
   -2.4116    2.6807   -0.1055 C   0  0  0  0  0  0  0  0  0  0  0  0
   -2.7144    1.4564   -0.7143 C   0  0  0  0  0  0  0  0  0  0  0  0
   -3.9545    1.2758   -1.3482 C   0  0  0  0  0  0  0  0  0  0  0  0
   -4.2559    0.0654   -1.9738 C   0  0  0  0  0  0  0  0  0  0  0  0
   -3.3239   -0.9721   -1.9772 C   0  0  0  0  0  0  0  0  0  0  0  0
   -2.0874   -0.8098   -1.3483 C   0  0  0  0  0  0  0  0  0  0  0  0
   -1.7671    0.4008   -0.6964 C   0  0  0  0  0  0  0  0  0  0  0  0
   -0.5275    0.5909   -0.0343 C   0  0  0  0  0  0  0  0  0  0  0  0
    0.4858   -0.4954    0.0585 C   0  0  0  0  0  0  0  0  0  0  0  0
    1.6818   -0.3650   -0.6718 C   0  0  0  0  0  0  0  0  0  0  0  0
    1.9079    0.7883   -1.4199 O   0  0  0  0  0  0  0  0  0  0  0  0
    2.6511   -1.3824   -0.6469 C   0  0  0  0  0  0  0  0  0  0  0  0
    3.9378   -1.2316   -1.4131 C   0  0  0  0  0  0  0  0  0  0  0  0
    4.8112   -0.4008   -0.6788 O   0  0  0  0  0  0  0  0  0  0  0  0
    6.0096   -0.2267   -1.4006 C   0  0  0  0  0  0  0  0  0  0  0  0
    2.4427   -2.5169    0.1480 C   0  0  0  0  0  0  0  0  0  0  0  0
    1.2737   -2.6527    0.9072 C   0  0  0  0  0  0  0  0  0  0  0  0
    1.0855   -3.7913    1.7074 C   0  0  0  0  0  0  0  0  0  0  0  0
   -0.0680   -3.9253    2.4812 C   0  0  0  0  0  0  0  0  0  0  0  0
   -1.0392   -2.9248    2.4693 C   0  0  0  0  0  0  0  0  0  0  0  0
   -0.8675   -1.7862    1.6787 C   0  0  0  0  0  0  0  0  0  0  0  0
    0.2844   -1.6365    0.8763 C   0  0  0  0  0  0  0  0  0  0  0  0
   -0.2318    1.8393    0.5443 C   0  0  0  0  0  0  0  0  0  0  0  0
    1.0016    2.0355    1.1615 O   0  0  0  0  0  0  0  0  0  0  0  0
   -0.9371    5.1911    4.2732 H   0  0  0  0  0  0  0  0  0  0  0  0
    0.3070    5.5716    3.0398 H   0  0  0  0  0  0  0  0  0  0  0  0
   -1.4223    6.1238    2.8210 H   0  0  0  0  0  0  0  0  0  0  0  0
   -1.5248    4.9988    0.7349 H   0  0  0  0  0  0  0  0  0  0  0  0
    0.1897    4.4892    0.9375 H   0  0  0  0  0  0  0  0  0  0  0  0
   -3.1425    3.4819   -0.1150 H   0  0  0  0  0  0  0  0  0  0  0  0
   -4.6887    2.0727   -1.3642 H   0  0  0  0  0  0  0  0  0  0  0  0
   -5.2125   -0.0667   -2.4626 H   0  0  0  0  0  0  0  0  0  0  0  0
   -3.5597   -1.9062   -2.4705 H   0  0  0  0  0  0  0  0  0  0  0  0
   -1.3884   -1.6349   -1.3811 H   0  0  0  0  0  0  0  0  0  0  0  0
    4.3954   -2.2344   -1.5786 H   0  0  0  0  0  0  0  0  0  0  0  0
    3.7134   -0.7921   -2.4123 H   0  0  0  0  0  0  0  0  0  0  0  0
    6.5292   -1.1977   -1.5606 H   0  0  0  0  0  0  0  0  0  0  0  0
    6.6873    0.4223   -0.8088 H   0  0  0  0  0  0  0  0  0  0  0  0
    5.8237    0.2804   -2.3735 H   0  0  0  0  0  0  0  0  0  0  0  0
    3.2005   -3.2918    0.1834 H   0  0  0  0  0  0  0  0  0  0  0  0
    1.8322   -4.5760    1.7370 H   0  0  0  0  0  0  0  0  0  0  0  0
   -0.2066   -4.8049    3.0966 H   0  0  0  0  0  0  0  0  0  0  0  0
   -1.9283   -3.0299    3.0776 H   0  0  0  0  0  0  0  0  0  0  0  0
   -1.6382   -1.0275    1.7069 H   0  0  0  0  0  0  0  0  0  0  0  0
    2.5337    2.0623   -0.0646 Cu  0  0  0  0  0 15  0  0  0  0  0  0
  1  2  1  0
  2  3  1  0
  3  4  1  0
  4  5  2  0
  5  6  1  0
  6  7  2  0
  7  8  1  0
  8  9  2  0
  9 10  1  0
 10 11  2  0
 11 12  1  0
 12 13  1  0
 13 14  2  0
 14 15  1  0
 14 16  1  0
 16 17  1  0
 17 18  1  0
 18 19  1  0
 16 20  2  0
 20 21  1  0
 21 22  2  0
 22 23  1  0
 23 24  2  0
 24 25  1  0
 25 26  2  0
 12 27  2  0
 27 28  1  0
 27  4  1  0
 11  6  1  0
 26 13  1  0
 26 21  1  0
  1 29  1  0
  1 30  1  0
  1 31  1  0
  3 32  1  0
  3 33  1  0
  5 34  1  0
  7 35  1  0
  8 36  1  0
  9 37  1  0
 10 38  1  0
 17 39  1  0
 17 40  1  0
 19 41  1  0
 19 42  1  0
 19 43  1  0
 20 44  1  0
 22 45  1  0
 23 46  1  0
 24 47  1  0
 25 48  1  0
M  CHG  1  49   2
M  END
