
     RDKit          3D

 39 41  0  0  0  0  0  0  0  0999 V2000
    2.3322   -6.7935    3.2018 C   0  0  0  0  0  0  0  0  0  0  0  0
    2.0705   -5.7823    2.2596 O   0  0  0  0  0  0  0  0  0  0  0  0
    1.0402   -4.9236    2.4696 C   0  0  0  0  0  0  0  0  0  0  0  0
    0.1880   -4.9824    3.6015 C   0  0  0  0  0  0  0  0  0  0  0  0
   -0.8359   -4.0581    3.7331 C   0  0  0  0  0  0  0  0  0  0  0  0
   -1.0578   -3.0495    2.7720 C   0  0  0  0  0  0  0  0  0  0  0  0
   -2.1059   -2.0914    2.9068 C   0  0  0  0  0  0  0  0  0  0  0  0
   -2.2808   -1.1077    1.9719 C   0  0  0  0  0  0  0  0  0  0  0  0
   -1.4379   -1.0260    0.8110 C   0  0  0  0  0  0  0  0  0  0  0  0
   -1.5746   -0.0000    0.0000 O   0  0  0  0  0  0  0  0  0  0  0  0
   -0.4286   -2.0031    0.6114 C   0  0  0  0  0  0  0  0  0  0  0  0
    0.4258   -2.0041   -0.6109 C   0  0  0  0  0  0  0  0  0  0  0  0
    1.4386   -1.0285   -0.8074 C   0  0  0  0  0  0  0  0  0  0  0  0
    1.5746   -0.0000    0.0000 O   0  0  0  0  0  0  0  0  0  0  0  0
    2.2850   -1.1180   -1.9637 C   0  0  0  0  0  0  0  0  0  0  0  0
    2.1144   -2.1044   -2.8972 C   0  0  0  0  0  0  0  0  0  0  0  0
    1.0628   -3.0592   -2.7663 C   0  0  0  0  0  0  0  0  0  0  0  0
    0.8502   -4.0690   -3.7346 C   0  0  0  0  0  0  0  0  0  0  0  0
   -0.1795   -4.9835   -3.5993 C   0  0  0  0  0  0  0  0  0  0  0  0
   -1.0355   -4.9179   -2.4749 C   0  0  0  0  0  0  0  0  0  0  0  0
   -0.8465   -3.9535   -1.5055 C   0  0  0  0  0  0  0  0  0  0  0  0
    0.2027   -2.9913   -1.6150 C   0  0  0  0  0  0  0  0  0  0  0  0
   -0.2004   -2.9916    1.6173 C   0  0  0  0  0  0  0  0  0  0  0  0
    0.8390   -3.9508    1.4992 C   0  0  0  0  0  0  0  0  0  0  0  0
    2.5796   -6.3754    4.1974 H   0  0  0  0  0  0  0  0  0  0  0  0
    3.2020   -7.3522    2.8231 H   0  0  0  0  0  0  0  0  0  0  0  0
    1.4770   -7.4897    3.3079 H   0  0  0  0  0  0  0  0  0  0  0  0
    0.3253   -5.7451    4.3689 H   0  0  0  0  0  0  0  0  0  0  0  0
   -1.4938   -4.1053    4.6067 H   0  0  0  0  0  0  0  0  0  0  0  0
   -2.7602   -2.1486    3.7826 H   0  0  0  0  0  0  0  0  0  0  0  0
   -3.0599   -0.3476    2.0708 H   0  0  0  0  0  0  0  0  0  0  0  0
    3.0678   -0.3612   -2.0609 H   0  0  0  0  0  0  0  0  0  0  0  0
    2.7747   -2.1656   -3.7681 H   0  0  0  0  0  0  0  0  0  0  0  0
    1.5180   -4.1127   -4.6009 H   0  0  0  0  0  0  0  0  0  0  0  0
   -0.3320   -5.7567   -4.3579 H   0  0  0  0  0  0  0  0  0  0  0  0
   -1.8509   -5.6398   -2.3706 H   0  0  0  0  0  0  0  0  0  0  0  0
   -1.5059   -3.9144   -0.6369 H   0  0  0  0  0  0  0  0  0  0  0  0
    1.5050   -3.9392    0.6365 H   0  0  0  0  0  0  0  0  0  0  0  0
   -0.0003    1.0229    0.0000 Cu  0  0  0  0  0 15  0  0  0  0  0  0
  1  2  1  0
  2  3  1  0
  3  4  2  0
  4  5  1  0
  5  6  2  0
  6  7  1  0
  7  8  2  0
  8  9  1  0
  9 10  1  0
  9 11  2  0
 11 12  1  0
 12 13  2  0
 13 14  1  0
 13 15  1  0
 15 16  2  0
 16 17  1  0
 17 18  2  0
 18 19  1  0
 19 20  2  0
 20 21  1  0
 21 22  2  0
 11 23  1  0
 23 24  2  0
 24  3  1  0
 23  6  1  0
 22 12  1  0
 22 17  1  0
  1 25  1  0
  1 26  1  0
  1 27  1  0
  4 28  1  0
  5 29  1  0
  7 30  1  0
  8 31  1  0
 15 32  1  0
 16 33  1  0
 18 34  1  0
 19 35  1  0
 20 36  1  0
 21 37  1  0
 24 38  1  0
M  CHG  1  39   2
M  END
$$$$
