
     RDKit          3D

 39 41  0  0  0  0  0  0  0  0999 V2000
    0.0634    5.2657    1.9116 C   0  0  0  0  0  0  0  0  0  0  0  0
   -0.0625    3.8598    1.7245 O   0  0  0  0  0  0  0  0  0  0  0  0
    0.9123    3.0492    1.1236 C   0  0  0  0  0  0  0  0  0  0  0  0
    2.1286    3.5655    0.6446 C   0  0  0  0  0  0  0  0  0  0  0  0
    3.0731    2.7199    0.0620 C   0  0  0  0  0  0  0  0  0  0  0  0
    2.8176    1.3467   -0.0591 C   0  0  0  0  0  0  0  0  0  0  0  0
    3.7802    0.5022   -0.6281 C   0  0  0  0  0  0  0  0  0  0  0  0
    3.5411   -0.8667   -0.7324 C   0  0  0  0  0  0  0  0  0  0  0  0
    2.3342   -1.4087   -0.2886 C   0  0  0  0  0  0  0  0  0  0  0  0
    2.1289   -2.7810   -0.3895 O   0  0  0  0  0  0  0  0  0  0  0  0
    1.3373   -0.5798    0.2588 C   0  0  0  0  0  0  0  0  0  0  0  0
    0.0525   -1.1965    0.6869 C   0  0  0  0  0  0  0  0  0  0  0  0
    0.0553   -2.0611    1.7974 C   0  0  0  0  0  0  0  0  0  0  0  0
    1.2460   -2.3571    2.4533 O   0  0  0  0  0  0  0  0  0  0  0  0
   -1.1328   -2.6352    2.2516 C   0  0  0  0  0  0  0  0  0  0  0  0
   -2.3378   -2.3700    1.6037 C   0  0  0  0  0  0  0  0  0  0  0  0
   -2.3662   -1.5374    0.4771 C   0  0  0  0  0  0  0  0  0  0  0  0
   -3.5800   -1.2913   -0.1840 C   0  0  0  0  0  0  0  0  0  0  0  0
   -3.6114   -0.4787   -1.3180 C   0  0  0  0  0  0  0  0  0  0  0  0
   -2.4346    0.0896   -1.8056 C   0  0  0  0  0  0  0  0  0  0  0  0
   -1.2187   -0.1438   -1.1590 C   0  0  0  0  0  0  0  0  0  0  0  0
   -1.1650   -0.9493   -0.0011 C   0  0  0  0  0  0  0  0  0  0  0  0
    1.5876    0.8110    0.4022 C   0  0  0  0  0  0  0  0  0  0  0  0
    0.6525    1.6797    1.0038 C   0  0  0  0  0  0  0  0  0  0  0  0
    0.9386    5.4880    2.5579 H   0  0  0  0  0  0  0  0  0  0  0  0
   -0.8514    5.6486    2.4084 H   0  0  0  0  0  0  0  0  0  0  0  0
    0.1738    5.7731    0.9299 H   0  0  0  0  0  0  0  0  0  0  0  0
    2.3569    4.6196    0.7232 H   0  0  0  0  0  0  0  0  0  0  0  0
    4.0074    3.1403   -0.2914 H   0  0  0  0  0  0  0  0  0  0  0  0
    4.7244    0.8996   -0.9817 H   0  0  0  0  0  0  0  0  0  0  0  0
    4.2986   -1.5115   -1.1597 H   0  0  0  0  0  0  0  0  0  0  0  0
   -1.1211   -3.2925    3.1118 H   0  0  0  0  0  0  0  0  0  0  0  0
   -3.2472   -2.8263    1.9766 H   0  0  0  0  0  0  0  0  0  0  0  0
   -4.5035   -1.7309    0.1741 H   0  0  0  0  0  0  0  0  0  0  0  0
   -4.5501   -0.2938   -1.8243 H   0  0  0  0  0  0  0  0  0  0  0  0
   -2.4639    0.7123   -2.6905 H   0  0  0  0  0  0  0  0  0  0  0  0
   -0.3270    0.3057   -1.5750 H   0  0  0  0  0  0  0  0  0  0  0  0
   -0.2863    1.3059    1.3911 H   0  0  0  0  0  0  0  0  0  0  0  0
    2.2778   -3.6303    1.3735 Cu  0  0  0  0  0 15  0  0  0  0  0  0
  1  2  1  0
  2  3  1  0
  3  4  2  0
  4  5  1  0
  5  6  2  0
  6  7  1  0
  7  8  2  0
  8  9  1  0
  9 10  1  0
  9 11  2  0
 11 12  1  0
 12 13  2  0
 13 14  1  0
 13 15  1  0
 15 16  2  0
 16 17  1  0
 17 18  2  0
 18 19  1  0
 19 20  2  0
 20 21  1  0
 21 22  2  0
 11 23  1  0
 23 24  2  0
 24  3  1  0
 23  6  1  0
 22 12  1  0
 22 17  1  0
  1 25  1  0
  1 26  1  0
  1 27  1  0
  4 28  1  0
  5 29  1  0
  7 30  1  0
  8 31  1  0
 15 32  1  0
 16 33  1  0
 18 34  1  0
 19 35  1  0
 20 36  1  0
 21 37  1  0
 24 38  1  0
M  CHG  1  39   2
M  END
