
     RDKit          3D

 61 65  0  0  0  0  0  0  0  0999 V2000
   -0.3314    3.9768    2.6950 O   0  0  0  0  0  0  0  0  0  0  0  0
    0.6536    3.0266    2.4448 C   0  0  0  0  0  0  0  0  0  0  0  0
    1.6587    2.8229    3.3910 C   0  0  0  0  0  0  0  0  0  0  0  0
    2.6665    1.8887    3.1595 C   0  0  0  0  0  0  0  0  0  0  0  0
    2.6915    1.1558    1.9650 C   0  0  0  0  0  0  0  0  0  0  0  0
    3.7215    0.2315    1.7311 C   0  0  0  0  0  0  0  0  0  0  0  0
    3.7744   -0.4958    0.5305 C   0  0  0  0  0  0  0  0  0  0  0  0
    4.8657   -1.4740    0.2890 C   0  0  0  0  0  0  0  0  0  0  0  0
    5.3014   -2.3285    1.3197 C   0  0  0  0  0  0  0  0  0  0  0  0
    6.3283   -3.2492    1.0897 C   0  0  0  0  0  0  0  0  0  0  0  0
    6.9313   -3.3272   -0.1676 C   0  0  0  0  0  0  0  0  0  0  0  0
    6.5083   -2.4848   -1.1981 C   0  0  0  0  0  0  0  0  0  0  0  0
    5.4812   -1.5628   -0.9741 C   0  0  0  0  0  0  0  0  0  0  0  0
    2.7837   -0.2805   -0.4403 C   0  0  0  0  0  0  0  0  0  0  0  0
    1.7533    0.6345   -0.2177 C   0  0  0  0  0  0  0  0  0  0  0  0
    1.6810    1.3568    0.9901 C   0  0  0  0  0  0  0  0  0  0  0  0
    0.6370    2.2842    1.2496 C   0  0  0  0  0  0  0  0  0  0  0  0
   -0.4734    2.5089    0.2848 C   0  0  0  0  0  0  0  0  0  0  0  0
   -0.5440    3.7428   -0.3879 C   0  0  0  0  0  0  0  0  0  0  0  0
    0.3874    4.7416   -0.1226 O   0  0  0  0  0  0  0  0  0  0  0  0
   -1.5497    3.9816   -1.3252 C   0  0  0  0  0  0  0  0  0  0  0  0
   -2.5050    3.0047   -1.5992 C   0  0  0  0  0  0  0  0  0  0  0  0
   -2.4769    1.7777   -0.9222 C   0  0  0  0  0  0  0  0  0  0  0  0
   -3.4545    0.8069   -1.1900 C   0  0  0  0  0  0  0  0  0  0  0  0
   -3.4533   -0.4209   -0.5086 C   0  0  0  0  0  0  0  0  0  0  0  0
   -4.5185   -1.4588   -0.8139 C   0  0  0  0  0  0  0  0  0  0  0  0
   -5.3894   -1.7466    0.4258 C   0  0  0  0  0  0  0  0  0  0  0  0
   -6.4677   -2.7902    0.1061 C   0  0  0  0  0  0  0  0  0  0  0  0
   -5.8412   -4.0811   -0.4365 C   0  0  0  0  0  0  0  0  0  0  0  0
   -4.9760   -3.7985   -1.6713 C   0  0  0  0  0  0  0  0  0  0  0  0
   -3.8922   -2.7587   -1.3581 C   0  0  0  0  0  0  0  0  0  0  0  0
   -2.4608   -0.6626    0.4561 C   0  0  0  0  0  0  0  0  0  0  0  0
   -1.4830    0.2949    0.7296 C   0  0  0  0  0  0  0  0  0  0  0  0
   -1.4648    1.5223    0.0380 C   0  0  0  0  0  0  0  0  0  0  0  0
    1.6586    3.3933    4.3112 H   0  0  0  0  0  0  0  0  0  0  0  0
    3.4342    1.7471    3.9111 H   0  0  0  0  0  0  0  0  0  0  0  0
    4.4960    0.0934    2.4770 H   0  0  0  0  0  0  0  0  0  0  0  0
    4.8366   -2.2968    2.2971 H   0  0  0  0  0  0  0  0  0  0  0  0
    6.6544   -3.9052    1.8865 H   0  0  0  0  0  0  0  0  0  0  0  0
    7.7263   -4.0404   -0.3434 H   0  0  0  0  0  0  0  0  0  0  0  0
    6.9789   -2.5437   -2.1711 H   0  0  0  0  0  0  0  0  0  0  0  0
    5.1807   -0.9081   -1.7825 H   0  0  0  0  0  0  0  0  0  0  0  0
    2.7956   -0.8344   -1.3707 H   0  0  0  0  0  0  0  0  0  0  0  0
    1.0177    0.7699   -0.9995 H   0  0  0  0  0  0  0  0  0  0  0  0
   -1.5910    4.9311   -1.8438 H   0  0  0  0  0  0  0  0  0  0  0  0
   -3.2743    3.2136   -2.3333 H   0  0  0  0  0  0  0  0  0  0  0  0
   -4.2210    1.0092   -1.9296 H   0  0  0  0  0  0  0  0  0  0  0  0
   -5.1934   -1.0614   -1.6063 H   0  0  0  0  0  0  0  0  0  0  0  0
   -4.7638   -2.1216    1.2649 H   0  0  0  0  0  0  0  0  0  0  0  0
   -5.8832   -0.8078    0.7591 H   0  0  0  0  0  0  0  0  0  0  0  0
   -7.1789   -2.3766   -0.6424 H   0  0  0  0  0  0  0  0  0  0  0  0
   -7.0402   -3.0209    1.0301 H   0  0  0  0  0  0  0  0  0  0  0  0
   -6.6490   -4.7934   -0.7104 H   0  0  0  0  0  0  0  0  0  0  0  0
   -5.2197   -4.5558    0.3544 H   0  0  0  0  0  0  0  0  0  0  0  0
   -4.4935   -4.7424   -2.0045 H   0  0  0  0  0  0  0  0  0  0  0  0
   -5.6184   -3.4313   -2.5018 H   0  0  0  0  0  0  0  0  0  0  0  0
   -3.3251   -2.5369   -2.2885 H   0  0  0  0  0  0  0  0  0  0  0  0
   -3.1827   -3.1907   -0.6191 H   0  0  0  0  0  0  0  0  0  0  0  0
   -2.4405   -1.5959    1.0036 H   0  0  0  0  0  0  0  0  0  0  0  0
   -0.7471    0.0656    1.4888 H   0  0  0  0  0  0  0  0  0  0  0  0
    0.0457    5.5753    1.6208 Cu  0  0  0  0  0 15  0  0  0  0  0  0
  1  2  1  0
  2  3  2  0
  3  4  1  0
  4  5  2  0
  5  6  1  0
  6  7  2  0
  7  8  1  0
  8  9  2  0
  9 10  1  0
 10 11  2  0
 11 12  1  0
 12 13  2  0
  7 14  1  0
 14 15  2  0
 15 16  1  0
 16 17  2  0
 17 18  1  0
 18 19  2  0
 19 20  1  0
 19 21  1  0
 21 22  2  0
 22 23  1  0
 23 24  2  0
 24 25  1  0
 25 26  1  0
 26 27  1  0
 27 28  1  0
 28 29  1  0
 29 30  1  0
 30 31  1  0
 25 32  2  0
 32 33  1  0
 33 34  2  0
 17  2  1  0
 34 18  1  0
 16  5  1  0
 34 23  1  0
 13  8  1  0
 31 26  1  0
  3 35  1  0
  4 36  1  0
  6 37  1  0
  9 38  1  0
 10 39  1  0
 11 40  1  0
 12 41  1  0
 13 42  1  0
 14 43  1  0
 15 44  1  0
 21 45  1  0
 22 46  1  0
 24 47  1  0
 26 48  1  0
 27 49  1  0
 27 50  1  0
 28 51  1  0
 28 52  1  0
 29 53  1  0
 29 54  1  0
 30 55  1  0
 30 56  1  0
 31 57  1  0
 31 58  1  0
 32 59  1  0
 33 60  1  0
M  CHG  1  61   2
M  END
