
     RDKit          3D

 61 65  0  0  0  0  0  0  0  0999 V2000
   -1.5762   -0.0000   -0.0000 O   0  0  0  0  0  0  0  0  0  0  0  0
   -1.4336   -1.0200    0.8185 C   0  0  0  0  0  0  0  0  0  0  0  0
   -2.2829   -1.1027    1.9737 C   0  0  0  0  0  0  0  0  0  0  0  0
   -2.1202   -2.0838    2.9149 C   0  0  0  0  0  0  0  0  0  0  0  0
   -1.0755   -3.0465    2.7906 C   0  0  0  0  0  0  0  0  0  0  0  0
   -0.8748   -4.0501    3.7639 C   0  0  0  0  0  0  0  0  0  0  0  0
    0.1504   -4.9860    3.6637 C   0  0  0  0  0  0  0  0  0  0  0  0
    0.3486   -6.0273    4.6982 C   0  0  0  0  0  0  0  0  0  0  0  0
   -0.7472   -6.6017    5.3709 C   0  0  0  0  0  0  0  0  0  0  0  0
   -0.5597   -7.5778    6.3505 C   0  0  0  0  0  0  0  0  0  0  0  0
    0.7299   -8.0058    6.6816 C   0  0  0  0  0  0  0  0  0  0  0  0
    1.8289   -7.4473    6.0216 C   0  0  0  0  0  0  0  0  0  0  0  0
    1.6400   -6.4716    5.0414 C   0  0  0  0  0  0  0  0  0  0  0  0
    1.0092   -4.9095    2.5296 C   0  0  0  0  0  0  0  0  0  0  0  0
    0.8316   -3.9542    1.5541 C   0  0  0  0  0  0  0  0  0  0  0  0
   -0.2123   -2.9840    1.6425 C   0  0  0  0  0  0  0  0  0  0  0  0
   -0.4245   -2.0003    0.6349 C   0  0  0  0  0  0  0  0  0  0  0  0
    0.4357   -2.0151   -0.5841 C   0  0  0  0  0  0  0  0  0  0  0  0
    1.4449   -1.0348   -0.7946 C   0  0  0  0  0  0  0  0  0  0  0  0
    1.5762   -0.0000   -0.0000 O   0  0  0  0  0  0  0  0  0  0  0  0
    2.2922   -1.1350   -1.9505 C   0  0  0  0  0  0  0  0  0  0  0  0
    2.1304   -2.1377   -2.8675 C   0  0  0  0  0  0  0  0  0  0  0  0
    1.0856   -3.0992   -2.7207 C   0  0  0  0  0  0  0  0  0  0  0  0
    0.8838   -4.1266   -3.6700 C   0  0  0  0  0  0  0  0  0  0  0  0
   -0.1343   -5.0621   -3.5444 C   0  0  0  0  0  0  0  0  0  0  0  0
   -0.3303   -6.1487   -4.5783 C   0  0  0  0  0  0  0  0  0  0  0  0
   -1.6962   -6.0401   -5.2889 C   0  0  0  0  0  0  0  0  0  0  0  0
   -1.8704   -7.1306   -6.3526 C   0  0  0  0  0  0  0  0  0  0  0  0
   -1.6765   -8.5310   -5.7588 C   0  0  0  0  0  0  0  0  0  0  0  0
   -0.3211   -8.6506   -5.0518 C   0  0  0  0  0  0  0  0  0  0  0  0
   -0.1446   -7.5621   -3.9863 C   0  0  0  0  0  0  0  0  0  0  0  0
   -0.9904   -4.9669   -2.4137 C   0  0  0  0  0  0  0  0  0  0  0  0
   -0.8178   -3.9871   -1.4600 C   0  0  0  0  0  0  0  0  0  0  0  0
    0.2236   -3.0168   -1.5734 C   0  0  0  0  0  0  0  0  0  0  0  0
   -3.0635   -0.3427    2.0639 H   0  0  0  0  0  0  0  0  0  0  0  0
   -2.7831   -2.1352    3.7844 H   0  0  0  0  0  0  0  0  0  0  0  0
   -1.5366   -4.0607    4.6346 H   0  0  0  0  0  0  0  0  0  0  0  0
   -1.7620   -6.2968    5.1019 H   0  0  0  0  0  0  0  0  0  0  0  0
   -1.4284   -8.0147    6.8526 H   0  0  0  0  0  0  0  0  0  0  0  0
    0.8775   -8.7717    7.4488 H   0  0  0  0  0  0  0  0  0  0  0  0
    2.8434   -7.7684    6.2770 H   0  0  0  0  0  0  0  0  0  0  0  0
    2.5103   -6.0264    4.5521 H   0  0  0  0  0  0  0  0  0  0  0  0
    1.8083   -5.6462    2.4149 H   0  0  0  0  0  0  0  0  0  0  0  0
    1.4965   -3.9360    0.6890 H   0  0  0  0  0  0  0  0  0  0  0  0
    3.0689   -0.3734   -2.0591 H   0  0  0  0  0  0  0  0  0  0  0  0
    2.7915   -2.2084   -3.7370 H   0  0  0  0  0  0  0  0  0  0  0  0
    1.5574   -4.1763   -4.5321 H   0  0  0  0  0  0  0  0  0  0  0  0
    0.4500   -6.0146   -5.3508 H   0  0  0  0  0  0  0  0  0  0  0  0
   -2.5044   -6.1302   -4.5384 H   0  0  0  0  0  0  0  0  0  0  0  0
   -1.7981   -5.0374   -5.7406 H   0  0  0  0  0  0  0  0  0  0  0  0
   -1.1288   -6.9721   -7.1599 H   0  0  0  0  0  0  0  0  0  0  0  0
   -2.8675   -7.0452   -6.8211 H   0  0  0  0  0  0  0  0  0  0  0  0
   -1.7676   -9.2991   -6.5478 H   0  0  0  0  0  0  0  0  0  0  0  0
   -2.4854   -8.7306   -5.0286 H   0  0  0  0  0  0  0  0  0  0  0  0
   -0.2130   -9.6497   -4.5923 H   0  0  0  0  0  0  0  0  0  0  0  0
    0.4892   -8.5598   -5.8015 H   0  0  0  0  0  0  0  0  0  0  0  0
    0.8519   -7.6372   -3.5162 H   0  0  0  0  0  0  0  0  0  0  0  0
   -0.8854   -7.7182   -3.1791 H   0  0  0  0  0  0  0  0  0  0  0  0
   -1.8041   -5.6873   -2.2917 H   0  0  0  0  0  0  0  0  0  0  0  0
   -1.4869   -3.9413   -0.5994 H   0  0  0  0  0  0  0  0  0  0  0  0
   -0.0003    1.0246    0.0000 Cu  0  0  0  0  0 15  0  0  0  0  0  0
  1  2  1  0
  2  3  2  0
  3  4  1  0
  4  5  2  0
  5  6  1  0
  6  7  2  0
  7  8  1  0
  8  9  2  0
  9 10  1  0
 10 11  2  0
 11 12  1  0
 12 13  2  0
  7 14  1  0
 14 15  2  0
 15 16  1  0
 16 17  2  0
 17 18  1  0
 18 19  2  0
 19 20  1  0
 19 21  1  0
 21 22  2  0
 22 23  1  0
 23 24  2  0
 24 25  1  0
 25 26  1  0
 26 27  1  0
 27 28  1  0
 28 29  1  0
 29 30  1  0
 30 31  1  0
 25 32  2  0
 32 33  1  0
 33 34  2  0
 17  2  1  0
 34 18  1  0
 16  5  1  0
 34 23  1  0
 13  8  1  0
 31 26  1  0
  3 35  1  0
  4 36  1  0
  6 37  1  0
  9 38  1  0
 10 39  1  0
 11 40  1  0
 12 41  1  0
 13 42  1  0
 14 43  1  0
 15 44  1  0
 21 45  1  0
 22 46  1  0
 24 47  1  0
 26 48  1  0
 27 49  1  0
 27 50  1  0
 28 51  1  0
 28 52  1  0
 29 53  1  0
 29 54  1  0
 30 55  1  0
 30 56  1  0
 31 57  1  0
 31 58  1  0
 32 59  1  0
 33 60  1  0
M  CHG  1  61   2
M  END
$$$$
