
     RDKit          3D

 32 33  0  0  0  0  0  0  0  0999 V2000
   -0.9385   -1.9396    0.3018 C   0  0  0  0  0  0  0  0  0  0  0  0
   -1.5288   -0.5914    0.6252 C   0  0  0  0  0  0  0  0  0  0  0  0
   -2.6927   -0.5303    1.4098 C   0  0  0  0  0  0  0  0  0  0  0  0
   -3.2818    0.6988    1.7112 C   0  0  0  0  0  0  0  0  0  0  0  0
   -2.7187    1.8813    1.2324 C   0  0  0  0  0  0  0  0  0  0  0  0
   -1.5509    1.8434    0.4667 C   0  0  0  0  0  0  0  0  0  0  0  0
   -1.0148    3.0316   -0.0187 O   0  0  0  0  0  0  0  0  0  0  0  0
   -0.9268    0.6140    0.1828 C   0  0  0  0  0  0  0  0  0  0  0  0
    0.3302    0.6086   -0.6099 C   0  0  0  0  0  0  0  0  0  0  0  0
    0.2726    0.9754   -1.9672 C   0  0  0  0  0  0  0  0  0  0  0  0
   -0.9311    1.3838   -2.5329 O   0  0  0  0  0  0  0  0  0  0  0  0
    1.4202    0.9391   -2.7604 C   0  0  0  0  0  0  0  0  0  0  0  0
    2.6431    0.5529   -2.2149 C   0  0  0  0  0  0  0  0  0  0  0  0
    2.7375    0.2190   -0.8574 C   0  0  0  0  0  0  0  0  0  0  0  0
    3.9779   -0.1404   -0.3068 C   0  0  0  0  0  0  0  0  0  0  0  0
    4.0829   -0.4467    1.0506 C   0  0  0  0  0  0  0  0  0  0  0  0
    2.9562   -0.3901    1.8709 C   0  0  0  0  0  0  0  0  0  0  0  0
    1.7140   -0.0369    1.3385 C   0  0  0  0  0  0  0  0  0  0  0  0
    1.5795    0.2562   -0.0354 C   0  0  0  0  0  0  0  0  0  0  0  0
   -1.7177   -2.7308    0.3323 H   0  0  0  0  0  0  0  0  0  0  0  0
   -0.5015   -1.9463   -0.7187 H   0  0  0  0  0  0  0  0  0  0  0  0
   -0.1511   -2.1919    1.0412 H   0  0  0  0  0  0  0  0  0  0  0  0
   -3.1525   -1.4379    1.7815 H   0  0  0  0  0  0  0  0  0  0  0  0
   -4.1834    0.7336    2.3090 H   0  0  0  0  0  0  0  0  0  0  0  0
   -3.1903    2.8298    1.4559 H   0  0  0  0  0  0  0  0  0  0  0  0
    1.3634    1.2135   -3.8062 H   0  0  0  0  0  0  0  0  0  0  0  0
    3.5198    0.5309   -2.8515 H   0  0  0  0  0  0  0  0  0  0  0  0
    4.8670   -0.1781   -0.9252 H   0  0  0  0  0  0  0  0  0  0  0  0
    5.0424   -0.7208    1.4698 H   0  0  0  0  0  0  0  0  0  0  0  0
    3.0458   -0.6180    2.9252 H   0  0  0  0  0  0  0  0  0  0  0  0
    0.8668    0.0098    2.0099 H   0  0  0  0  0  0  0  0  0  0  0  0
   -1.5288    3.1464   -1.9095 Cu  0  0  0  0  0 15  0  0  0  0  0  0
  1  2  1  0
  2  3  2  0
  3  4  1  0
  4  5  2  0
  5  6  1  0
  6  7  1  0
  6  8  2  0
  8  9  1  0
  9 10  2  0
 10 11  1  0
 10 12  1  0
 12 13  2  0
 13 14  1  0
 14 15  2  0
 15 16  1  0
 16 17  2  0
 17 18  1  0
 18 19  2  0
  8  2  1  0
 19  9  1  0
 19 14  1  0
  1 20  1  0
  1 21  1  0
  1 22  1  0
  3 23  1  0
  4 24  1  0
  5 25  1  0
 12 26  1  0
 13 27  1  0
 15 28  1  0
 16 29  1  0
 17 30  1  0
 18 31  1  0
M  CHG  1  32   2
M  END
