
     RDKit          3D

 59 63  0  0  0  0  0  0  0  0999 V2000
    5.2220   -9.9585    1.9989 C   0  0  0  0  0  0  0  0  0  0  0  0
    4.6914   -9.1344    0.9890 O   0  0  0  0  0  0  0  0  0  0  0  0
    3.7145   -8.2488    1.3062 C   0  0  0  0  0  0  0  0  0  0  0  0
    3.2201   -7.4630    0.2503 C   0  0  0  0  0  0  0  0  0  0  0  0
    2.2196   -6.5280    0.4796 C   0  0  0  0  0  0  0  0  0  0  0  0
    1.6713   -6.3411    1.7673 C   0  0  0  0  0  0  0  0  0  0  0  0
    0.5899   -5.3528    1.9822 C   0  0  0  0  0  0  0  0  0  0  0  0
   -0.4894   -5.6144    2.8658 C   0  0  0  0  0  0  0  0  0  0  0  0
   -1.5212   -4.7032    2.9945 C   0  0  0  0  0  0  0  0  0  0  0  0
   -1.5550   -3.5162    2.2263 C   0  0  0  0  0  0  0  0  0  0  0  0
   -2.6462   -2.5976    2.3143 C   0  0  0  0  0  0  0  0  0  0  0  0
   -2.6636   -1.4577    1.5664 C   0  0  0  0  0  0  0  0  0  0  0  0
   -1.6019   -1.1229    0.6481 C   0  0  0  0  0  0  0  0  0  0  0  0
   -1.7299    0.0000   -0.0000 O   0  0  0  0  0  0  0  0  0  0  0  0
   -0.5111   -2.0529    0.4785 C   0  0  0  0  0  0  0  0  0  0  0  0
    0.5050   -2.0159   -0.6137 C   0  0  0  0  0  0  0  0  0  0  0  0
    1.6258   -1.1047   -0.6764 C   0  0  0  0  0  0  0  0  0  0  0  0
    1.7299   -0.0000   -0.0000 O   0  0  0  0  0  0  0  0  0  0  0  0
    2.7528   -1.4511   -1.5114 C   0  0  0  0  0  0  0  0  0  0  0  0
    2.7682   -2.5710   -2.2861 C   0  0  0  0  0  0  0  0  0  0  0  0
    1.6343   -3.4440   -2.3352 C   0  0  0  0  0  0  0  0  0  0  0  0
    1.6457   -4.6069   -3.1331 C   0  0  0  0  0  0  0  0  0  0  0  0
    0.5647   -5.4850   -3.1740 C   0  0  0  0  0  0  0  0  0  0  0  0
    0.6145   -6.7352   -3.9656 C   0  0  0  0  0  0  0  0  0  0  0  0
    1.2772   -6.7880   -5.2061 C   0  0  0  0  0  0  0  0  0  0  0  0
    1.3336   -7.9743   -5.9395 C   0  0  0  0  0  0  0  0  0  0  0  0
    0.7289   -9.1357   -5.4480 C   0  0  0  0  0  0  0  0  0  0  0  0
    0.0668   -9.0988   -4.2168 C   0  0  0  0  0  0  0  0  0  0  0  0
    0.0092   -7.9116   -3.4848 C   0  0  0  0  0  0  0  0  0  0  0  0
   -0.5893   -5.1400   -2.4215 C   0  0  0  0  0  0  0  0  0  0  0  0
   -0.6261   -4.0037   -1.6394 C   0  0  0  0  0  0  0  0  0  0  0  0
    0.4961   -3.1378   -1.5261 C   0  0  0  0  0  0  0  0  0  0  0  0
   -0.4839   -3.2329    1.3225 C   0  0  0  0  0  0  0  0  0  0  0  0
    0.5921   -4.1546    1.2765 C   0  0  0  0  0  0  0  0  0  0  0  0
    2.1701   -7.1380    2.8075 C   0  0  0  0  0  0  0  0  0  0  0  0
    3.1808   -8.0802    2.5927 C   0  0  0  0  0  0  0  0  0  0  0  0
    5.6993   -9.3652    2.8034 H   0  0  0  0  0  0  0  0  0  0  0  0
    4.4453  -10.6090    2.4469 H   0  0  0  0  0  0  0  0  0  0  0  0
    5.9850  -10.5894    1.5173 H   0  0  0  0  0  0  0  0  0  0  0  0
    3.6319   -7.6164   -0.7502 H   0  0  0  0  0  0  0  0  0  0  0  0
    1.8317   -5.9494   -0.3634 H   0  0  0  0  0  0  0  0  0  0  0  0
   -0.5142   -6.5517    3.4277 H   0  0  0  0  0  0  0  0  0  0  0  0
   -2.3506   -4.9072    3.6790 H   0  0  0  0  0  0  0  0  0  0  0  0
   -3.4678   -2.8215    3.0024 H   0  0  0  0  0  0  0  0  0  0  0  0
   -3.4808   -0.7353    1.6301 H   0  0  0  0  0  0  0  0  0  0  0  0
    3.5953   -0.7561   -1.4808 H   0  0  0  0  0  0  0  0  0  0  0  0
    3.6437   -2.8117   -2.8974 H   0  0  0  0  0  0  0  0  0  0  0  0
    2.5527   -4.8344   -3.7002 H   0  0  0  0  0  0  0  0  0  0  0  0
    1.7315   -5.8801   -5.6121 H   0  0  0  0  0  0  0  0  0  0  0  0
    1.8463   -7.9898   -6.9060 H   0  0  0  0  0  0  0  0  0  0  0  0
    0.7733  -10.0657   -6.0226 H   0  0  0  0  0  0  0  0  0  0  0  0
   -0.4015  -10.0038   -3.8183 H   0  0  0  0  0  0  0  0  0  0  0  0
   -0.4869   -7.9014   -2.5106 H   0  0  0  0  0  0  0  0  0  0  0  0
   -1.4770   -5.7742   -2.4843 H   0  0  0  0  0  0  0  0  0  0  0  0
   -1.5383   -3.7605   -1.0925 H   0  0  0  0  0  0  0  0  0  0  0  0
    1.4568   -3.9212    0.6577 H   0  0  0  0  0  0  0  0  0  0  0  0
    1.7802   -7.0083    3.8211 H   0  0  0  0  0  0  0  0  0  0  0  0
    3.5463   -8.6685    3.4357 H   0  0  0  0  0  0  0  0  0  0  0  0
   -0.0020    0.6979    0.0000 Cu  0  0  0  0  0 15  0  0  0  0  0  0
  1  2  1  0
  2  3  1  0
  3  4  2  0
  4  5  1  0
  5  6  2  0
  6  7  1  0
  7  8  2  0
  8  9  1  0
  9 10  2  0
 10 11  1  0
 11 12  2  0
 12 13  1  0
 13 14  1  0
 13 15  2  0
 15 16  1  0
 16 17  2  0
 17 18  1  0
 17 19  1  0
 19 20  2  0
 20 21  1  0
 21 22  2  0
 22 23  1  0
 23 24  1  0
 24 25  2  0
 25 26  1  0
 26 27  2  0
 27 28  1  0
 28 29  2  0
 23 30  2  0
 30 31  1  0
 31 32  2  0
 15 33  1  0
 33 34  2  0
  6 35  1  0
 35 36  2  0
 36  3  1  0
 34  7  1  0
 33 10  1  0
 32 16  1  0
 32 21  1  0
 29 24  1  0
  1 37  1  0
  1 38  1  0
  1 39  1  0
  4 40  1  0
  5 41  1  0
  8 42  1  0
  9 43  1  0
 11 44  1  0
 12 45  1  0
 19 46  1  0
 20 47  1  0
 22 48  1  0
 25 49  1  0
 26 50  1  0
 27 51  1  0
 28 52  1  0
 29 53  1  0
 30 54  1  0
 31 55  1  0
 34 56  1  0
 35 57  1  0
 36 58  1  0
M  CHG  1  59   2
M  END
$$$$
