
     RDKit          3D

 35 36  0  0  0  0  0  0  0  0999 V2000
    3.3443    0.0503   -2.1432 C   0  0  0  0  0  0  0  0  0  0  0  0
    2.2785   -1.0025   -2.0208 C   0  0  0  0  0  0  0  0  0  0  0  0
    2.0795   -1.9874   -2.9878 C   0  0  0  0  0  0  0  0  0  0  0  0
    1.0456   -2.9179   -2.8658 C   0  0  0  0  0  0  0  0  0  0  0  0
    0.1955   -2.9165   -1.7455 C   0  0  0  0  0  0  0  0  0  0  0  0
   -0.9330   -3.9167   -1.6541 C   0  0  0  0  0  0  0  0  0  0  0  0
    0.4168   -1.9815   -0.7181 C   0  0  0  0  0  0  0  0  0  0  0  0
   -0.4228   -2.0333    0.5140 C   0  0  0  0  0  0  0  0  0  0  0  0
   -1.4233   -1.0577    0.7680 C   0  0  0  0  0  0  0  0  0  0  0  0
   -1.5623    0.0000   -0.0000 O   0  0  0  0  0  0  0  0  0  0  0  0
   -2.2613   -1.1875    1.9261 C   0  0  0  0  0  0  0  0  0  0  0  0
   -2.0972   -2.2211    2.8078 C   0  0  0  0  0  0  0  0  0  0  0  0
   -1.0534   -3.1774    2.6259 C   0  0  0  0  0  0  0  0  0  0  0  0
   -0.8389   -4.2266    3.5515 C   0  0  0  0  0  0  0  0  0  0  0  0
    0.1915   -5.1332    3.3772 C   0  0  0  0  0  0  0  0  0  0  0  0
    1.0505   -5.0157    2.2589 C   0  0  0  0  0  0  0  0  0  0  0  0
    0.8601   -4.0102    1.3323 C   0  0  0  0  0  0  0  0  0  0  0  0
   -0.1981   -3.0637    1.4757 C   0  0  0  0  0  0  0  0  0  0  0  0
    1.4306   -0.9839   -0.8764 C   0  0  0  0  0  0  0  0  0  0  0  0
    1.5623    0.0000    0.0000 O   0  0  0  0  0  0  0  0  0  0  0  0
    2.9031    1.0635   -2.0945 H   0  0  0  0  0  0  0  0  0  0  0  0
    3.8973   -0.0480   -3.0924 H   0  0  0  0  0  0  0  0  0  0  0  0
    4.0668   -0.0066   -1.3090 H   0  0  0  0  0  0  0  0  0  0  0  0
    2.7305   -2.0126   -3.8678 H   0  0  0  0  0  0  0  0  0  0  0  0
    0.8923   -3.6657   -3.6495 H   0  0  0  0  0  0  0  0  0  0  0  0
   -0.7544   -4.6623   -0.8589 H   0  0  0  0  0  0  0  0  0  0  0  0
   -1.0550   -4.4595   -2.6062 H   0  0  0  0  0  0  0  0  0  0  0  0
   -1.8890   -3.4200   -1.4149 H   0  0  0  0  0  0  0  0  0  0  0  0
   -3.0332   -0.4263    2.0662 H   0  0  0  0  0  0  0  0  0  0  0  0
   -2.7523   -2.3176    3.6794 H   0  0  0  0  0  0  0  0  0  0  0  0
   -1.5041   -4.3057    4.4172 H   0  0  0  0  0  0  0  0  0  0  0  0
    0.3465   -5.9367    4.1032 H   0  0  0  0  0  0  0  0  0  0  0  0
    1.8723   -5.7261    2.1289 H   0  0  0  0  0  0  0  0  0  0  0  0
    1.5261   -3.9236    0.4715 H   0  0  0  0  0  0  0  0  0  0  0  0
    0.0015    1.0327    0.0000 Cu  0  0  0  0  0 15  0  0  0  0  0  0
  1  2  1  0
  2  3  2  0
  3  4  1  0
  4  5  2  0
  5  6  1  0
  5  7  1  0
  7  8  1  0
  8  9  2  0
  9 10  1  0
  9 11  1  0
 11 12  2  0
 12 13  1  0
 13 14  2  0
 14 15  1  0
 15 16  2  0
 16 17  1  0
 17 18  2  0
  7 19  2  0
 19 20  1  0
 19  2  1  0
 18  8  1  0
 18 13  1  0
  1 21  1  0
  1 22  1  0
  1 23  1  0
  3 24  1  0
  4 25  1  0
  6 26  1  0
  6 27  1  0
  6 28  1  0
 11 29  1  0
 12 30  1  0
 14 31  1  0
 15 32  1  0
 16 33  1  0
 17 34  1  0
M  CHG  1  35   2
M  END
$$$$
