
     RDKit          3D

 42 44  0  0  0  0  0  0  0  0999 V2000
   -2.6020   -0.6337   -1.4647 C   0  0  0  0  0  0  0  0  0  0  0  0
   -2.5787   -1.0138   -0.0068 C   0  0  0  0  0  0  0  0  0  0  0  0
   -3.6182   -1.8073    0.5068 C   0  0  0  0  0  0  0  0  0  0  0  0
   -3.6184   -2.1954    1.8477 C   0  0  0  0  0  0  0  0  0  0  0  0
   -2.5817   -1.7984    2.6919 C   0  0  0  0  0  0  0  0  0  0  0  0
   -1.5487   -0.9940    2.2050 C   0  0  0  0  0  0  0  0  0  0  0  0
   -0.5129   -0.6238    3.0565 O   0  0  0  0  0  0  0  0  0  0  0  0
   -1.5518   -0.5685    0.8634 C   0  0  0  0  0  0  0  0  0  0  0  0
   -0.4541    0.3097    0.3811 C   0  0  0  0  0  0  0  0  0  0  0  0
    0.8386   -0.2336    0.2622 C   0  0  0  0  0  0  0  0  0  0  0  0
    1.0679   -1.5458    0.6705 O   0  0  0  0  0  0  0  0  0  0  0  0
    1.9000    0.5427   -0.2397 C   0  0  0  0  0  0  0  0  0  0  0  0
    3.2586   -0.0301   -0.3999 C   0  0  0  0  0  0  0  0  0  0  0  0
    3.4465   -1.2476   -1.0788 C   0  0  0  0  0  0  0  0  0  0  0  0
    4.7308   -1.7780   -1.2354 C   0  0  0  0  0  0  0  0  0  0  0  0
    5.8375   -1.0977   -0.7210 C   0  0  0  0  0  0  0  0  0  0  0  0
    5.6623    0.1159   -0.0515 C   0  0  0  0  0  0  0  0  0  0  0  0
    4.3801    0.6507    0.1071 C   0  0  0  0  0  0  0  0  0  0  0  0
    1.6690    1.8803   -0.5893 C   0  0  0  0  0  0  0  0  0  0  0  0
    0.3995    2.4515   -0.4392 C   0  0  0  0  0  0  0  0  0  0  0  0
    0.1929    3.7995   -0.7745 C   0  0  0  0  0  0  0  0  0  0  0  0
   -1.0637    4.3823   -0.6063 C   0  0  0  0  0  0  0  0  0  0  0  0
   -2.1217    3.6299   -0.0973 C   0  0  0  0  0  0  0  0  0  0  0  0
   -1.9333    2.2873    0.2382 C   0  0  0  0  0  0  0  0  0  0  0  0
   -0.6757    1.6719    0.0578 C   0  0  0  0  0  0  0  0  0  0  0  0
   -1.5752   -0.6260   -1.8867 H   0  0  0  0  0  0  0  0  0  0  0  0
   -3.0561    0.3714   -1.5832 H   0  0  0  0  0  0  0  0  0  0  0  0
   -3.1972   -1.3619   -2.0558 H   0  0  0  0  0  0  0  0  0  0  0  0
   -4.4269   -2.1353   -0.1347 H   0  0  0  0  0  0  0  0  0  0  0  0
   -4.4197   -2.8140    2.2309 H   0  0  0  0  0  0  0  0  0  0  0  0
   -2.5799   -2.1165    3.7267 H   0  0  0  0  0  0  0  0  0  0  0  0
    2.6021   -1.7789   -1.5001 H   0  0  0  0  0  0  0  0  0  0  0  0
    4.8684   -2.7148   -1.7597 H   0  0  0  0  0  0  0  0  0  0  0  0
    6.8308   -1.5097   -0.8436 H   0  0  0  0  0  0  0  0  0  0  0  0
    6.5204    0.6425    0.3457 H   0  0  0  0  0  0  0  0  0  0  0  0
    4.2612    1.5887    0.6353 H   0  0  0  0  0  0  0  0  0  0  0  0
    2.4841    2.4784   -0.9821 H   0  0  0  0  0  0  0  0  0  0  0  0
    1.0050    4.4040   -1.1612 H   0  0  0  0  0  0  0  0  0  0  0  0
   -1.2159    5.4224   -0.8643 H   0  0  0  0  0  0  0  0  0  0  0  0
   -3.0920    4.0894    0.0408 H   0  0  0  0  0  0  0  0  0  0  0  0
   -2.7752    1.7411    0.6427 H   0  0  0  0  0  0  0  0  0  0  0  0
    0.9628   -1.8377    2.6085 Cu  0  0  0  0  0 15  0  0  0  0  0  0
  1  2  1  0
  2  3  2  0
  3  4  1  0
  4  5  2  0
  5  6  1  0
  6  7  1  0
  6  8  2  0
  8  9  1  0
  9 10  2  0
 10 11  1  0
 10 12  1  0
 12 13  1  0
 13 14  2  0
 14 15  1  0
 15 16  2  0
 16 17  1  0
 17 18  2  0
 12 19  2  0
 19 20  1  0
 20 21  2  0
 21 22  1  0
 22 23  2  0
 23 24  1  0
 24 25  2  0
  8  2  1  0
 25  9  1  0
 18 13  1  0
 25 20  1  0
  1 26  1  0
  1 27  1  0
  1 28  1  0
  3 29  1  0
  4 30  1  0
  5 31  1  0
 14 32  1  0
 15 33  1  0
 16 34  1  0
 17 35  1  0
 18 36  1  0
 19 37  1  0
 21 38  1  0
 22 39  1  0
 23 40  1  0
 24 41  1  0
M  CHG  1  42   2
M  END
