
     RDKit          3D

 35 36  0  0  0  0  0  0  0  0999 V2000
   -3.8943    1.9182    1.3729 C   0  0  0  0  0  0  0  0  0  0  0  0
   -2.9025    1.2964    0.4308 C   0  0  0  0  0  0  0  0  0  0  0  0
   -3.1985    1.1866   -0.9344 C   0  0  0  0  0  0  0  0  0  0  0  0
   -2.2922    0.5849   -1.8077 C   0  0  0  0  0  0  0  0  0  0  0  0
   -1.0711    0.0801   -1.3359 C   0  0  0  0  0  0  0  0  0  0  0  0
   -0.1320   -0.5833   -2.3103 C   0  0  0  0  0  0  0  0  0  0  0  0
   -0.7419    0.2309    0.0335 C   0  0  0  0  0  0  0  0  0  0  0  0
    0.5585   -0.2453    0.5734 C   0  0  0  0  0  0  0  0  0  0  0  0
    0.5654   -1.3673    1.4224 C   0  0  0  0  0  0  0  0  0  0  0  0
   -0.6299   -1.9797    1.7851 O   0  0  0  0  0  0  0  0  0  0  0  0
    1.7682   -1.8759    1.9147 C   0  0  0  0  0  0  0  0  0  0  0  0
    2.9787   -1.2697    1.5837 C   0  0  0  0  0  0  0  0  0  0  0  0
    2.9987   -0.1287    0.7707 C   0  0  0  0  0  0  0  0  0  0  0  0
    4.2187    0.4949    0.4649 C   0  0  0  0  0  0  0  0  0  0  0  0
    4.2420    1.6475   -0.3216 C   0  0  0  0  0  0  0  0  0  0  0  0
    3.0512    2.1916   -0.8028 C   0  0  0  0  0  0  0  0  0  0  0  0
    1.8290    1.5821   -0.5099 C   0  0  0  0  0  0  0  0  0  0  0  0
    1.7825    0.4042    0.2660 C   0  0  0  0  0  0  0  0  0  0  0  0
   -1.6764    0.8086    0.9137 C   0  0  0  0  0  0  0  0  0  0  0  0
   -1.3848    0.8899    2.2733 O   0  0  0  0  0  0  0  0  0  0  0  0
   -4.2352    1.1596    2.1085 H   0  0  0  0  0  0  0  0  0  0  0  0
   -4.7831    2.3085    0.8327 H   0  0  0  0  0  0  0  0  0  0  0  0
   -3.4188    2.7629    1.9146 H   0  0  0  0  0  0  0  0  0  0  0  0
   -4.1376    1.5582   -1.3253 H   0  0  0  0  0  0  0  0  0  0  0  0
   -2.5503    0.5036   -2.8566 H   0  0  0  0  0  0  0  0  0  0  0  0
    0.6122    0.1536   -2.6755 H   0  0  0  0  0  0  0  0  0  0  0  0
   -0.6868   -0.9871   -3.1839 H   0  0  0  0  0  0  0  0  0  0  0  0
    0.3965   -1.4351   -1.8331 H   0  0  0  0  0  0  0  0  0  0  0  0
    1.7637   -2.7457    2.5594 H   0  0  0  0  0  0  0  0  0  0  0  0
    3.8995   -1.6842    1.9770 H   0  0  0  0  0  0  0  0  0  0  0  0
    5.1534    0.0943    0.8394 H   0  0  0  0  0  0  0  0  0  0  0  0
    5.1856    2.1252   -0.5520 H   0  0  0  0  0  0  0  0  0  0  0  0
    3.0746    3.0919   -1.4033 H   0  0  0  0  0  0  0  0  0  0  0  0
    0.9263    2.0422   -0.8897 H   0  0  0  0  0  0  0  0  0  0  0  0
   -1.4992   -0.8643    3.1463 Cu  0  0  0  0  0 15  0  0  0  0  0  0
  1  2  1  0
  2  3  2  0
  3  4  1  0
  4  5  2  0
  5  6  1  0
  5  7  1  0
  7  8  1  0
  8  9  2  0
  9 10  1  0
  9 11  1  0
 11 12  2  0
 12 13  1  0
 13 14  2  0
 14 15  1  0
 15 16  2  0
 16 17  1  0
 17 18  2  0
  7 19  2  0
 19 20  1  0
 19  2  1  0
 18  8  1  0
 18 13  1  0
  1 21  1  0
  1 22  1  0
  1 23  1  0
  3 24  1  0
  4 25  1  0
  6 26  1  0
  6 27  1  0
  6 28  1  0
 11 29  1  0
 12 30  1  0
 14 31  1  0
 15 32  1  0
 16 33  1  0
 17 34  1  0
M  CHG  1  35   2
M  END
