
     RDKit          3D

 32 33  0  0  0  0  0  0  0  0999 V2000
    0.9327   -3.9004    1.7102 C   0  0  0  0  0  0  0  0  0  0  0  0
   -0.2054   -2.9083    1.7809 C   0  0  0  0  0  0  0  0  0  0  0  0
   -1.0733   -2.9235    2.8870 C   0  0  0  0  0  0  0  0  0  0  0  0
   -2.1238   -2.0079    2.9834 C   0  0  0  0  0  0  0  0  0  0  0  0
   -2.2935   -1.0365    2.0024 C   0  0  0  0  0  0  0  0  0  0  0  0
   -1.4357   -0.9841    0.8799 C   0  0  0  0  0  0  0  0  0  0  0  0
   -1.5661   -0.0000   -0.0000 O   0  0  0  0  0  0  0  0  0  0  0  0
   -0.4108   -1.9769    0.7440 C   0  0  0  0  0  0  0  0  0  0  0  0
    0.4398   -2.0469   -0.4791 C   0  0  0  0  0  0  0  0  0  0  0  0
    1.4391   -1.0719   -0.7473 C   0  0  0  0  0  0  0  0  0  0  0  0
    1.5661    0.0000   -0.0000 O   0  0  0  0  0  0  0  0  0  0  0  0
    2.2876   -1.2193   -1.8959 C   0  0  0  0  0  0  0  0  0  0  0  0
    2.1364   -2.2720   -2.7561 C   0  0  0  0  0  0  0  0  0  0  0  0
    1.0945   -3.2293   -2.5630 C   0  0  0  0  0  0  0  0  0  0  0  0
    0.8935   -4.2974   -3.4690 C   0  0  0  0  0  0  0  0  0  0  0  0
   -0.1360   -5.2042   -3.2866 C   0  0  0  0  0  0  0  0  0  0  0  0
   -1.0074   -5.0669   -2.1807 C   0  0  0  0  0  0  0  0  0  0  0  0
   -0.8299   -4.0421   -1.2727 C   0  0  0  0  0  0  0  0  0  0  0  0
    0.2273   -3.0960   -1.4239 C   0  0  0  0  0  0  0  0  0  0  0  0
    1.0642   -4.4165    2.6757 H   0  0  0  0  0  0  0  0  0  0  0  0
    1.8830   -3.4027    1.4519 H   0  0  0  0  0  0  0  0  0  0  0  0
    0.7559   -4.6696    0.9371 H   0  0  0  0  0  0  0  0  0  0  0  0
   -0.9205   -3.6678    3.6739 H   0  0  0  0  0  0  0  0  0  0  0  0
   -2.7996   -2.0394    3.8438 H   0  0  0  0  0  0  0  0  0  0  0  0
   -3.0851   -0.2855    2.0665 H   0  0  0  0  0  0  0  0  0  0  0  0
    3.0562   -0.4566   -2.0450 H   0  0  0  0  0  0  0  0  0  0  0  0
    2.7991   -2.3840   -3.6200 H   0  0  0  0  0  0  0  0  0  0  0  0
    1.5674   -4.3917   -4.3263 H   0  0  0  0  0  0  0  0  0  0  0  0
   -0.2807   -6.0226   -3.9978 H   0  0  0  0  0  0  0  0  0  0  0  0
   -1.8290   -5.7765   -2.0457 H   0  0  0  0  0  0  0  0  0  0  0  0
   -1.5060   -3.9387   -0.4218 H   0  0  0  0  0  0  0  0  0  0  0  0
   -0.0031    1.0186   -0.0000 Cu  0  0  0  0  0 15  0  0  0  0  0  0
  1  2  1  0
  2  3  2  0
  3  4  1  0
  4  5  2  0
  5  6  1  0
  6  7  1  0
  6  8  2  0
  8  9  1  0
  9 10  2  0
 10 11  1  0
 10 12  1  0
 12 13  2  0
 13 14  1  0
 14 15  2  0
 15 16  1  0
 16 17  2  0
 17 18  1  0
 18 19  2  0
  8  2  1  0
 19  9  1  0
 19 14  1  0
  1 20  1  0
  1 21  1  0
  1 22  1  0
  3 23  1  0
  4 24  1  0
  5 25  1  0
 12 26  1  0
 13 27  1  0
 15 28  1  0
 16 29  1  0
 17 30  1  0
 18 31  1  0
M  CHG  1  32   2
M  END
$$$$
