
     RDKit          3D

 39 41  0  0  0  0  0  0  0  0999 V2000
   -1.2691    2.1683    2.6296 O   0  0  0  0  0  0  0  0  0  0  0  0
   -1.6963    1.4702    1.5046 C   0  0  0  0  0  0  0  0  0  0  0  0
   -3.0352    1.5405    1.1259 C   0  0  0  0  0  0  0  0  0  0  0  0
   -3.4930    0.8139    0.0302 C   0  0  0  0  0  0  0  0  0  0  0  0
   -2.6240   -0.0205   -0.6869 C   0  0  0  0  0  0  0  0  0  0  0  0
   -1.2503   -0.0787   -0.3332 C   0  0  0  0  0  0  0  0  0  0  0  0
   -0.7883    0.6902    0.7681 C   0  0  0  0  0  0  0  0  0  0  0  0
    0.6339    0.6621    1.1993 C   0  0  0  0  0  0  0  0  0  0  0  0
    0.9566    0.0294    2.4133 C   0  0  0  0  0  0  0  0  0  0  0  0
   -0.0472   -0.5199    3.2045 O   0  0  0  0  0  0  0  0  0  0  0  0
    2.2820   -0.0428    2.8445 C   0  0  0  0  0  0  0  0  0  0  0  0
    3.3019    0.5336    2.0892 C   0  0  0  0  0  0  0  0  0  0  0  0
    3.0036    1.2114    0.8996 C   0  0  0  0  0  0  0  0  0  0  0  0
    4.0308    1.8178    0.1593 C   0  0  0  0  0  0  0  0  0  0  0  0
    3.7358    2.5146   -1.0135 C   0  0  0  0  0  0  0  0  0  0  0  0
    2.4166    2.6175   -1.4547 C   0  0  0  0  0  0  0  0  0  0  0  0
    1.3829    2.0179   -0.7314 C   0  0  0  0  0  0  0  0  0  0  0  0
    1.6594    1.2943    0.4485 C   0  0  0  0  0  0  0  0  0  0  0  0
   -0.3264   -1.0759   -1.0144 C   0  0  0  0  0  0  0  0  0  0  0  0
   -0.8423   -1.5383   -2.3788 C   0  0  0  0  0  0  0  0  0  0  0  0
   -2.3050   -1.9595   -2.2790 C   0  0  0  0  0  0  0  0  0  0  0  0
   -3.1704   -0.7627   -1.8849 C   0  0  0  0  0  0  0  0  0  0  0  0
   -3.7255    2.1572    1.6874 H   0  0  0  0  0  0  0  0  0  0  0  0
   -4.5362    0.8894   -0.2520 H   0  0  0  0  0  0  0  0  0  0  0  0
    2.5214   -0.5427    3.7745 H   0  0  0  0  0  0  0  0  0  0  0  0
    4.3232    0.4651    2.4450 H   0  0  0  0  0  0  0  0  0  0  0  0
    5.0607    1.7575    0.4909 H   0  0  0  0  0  0  0  0  0  0  0  0
    4.5319    2.9816   -1.5789 H   0  0  0  0  0  0  0  0  0  0  0  0
    2.1931    3.1653   -2.3611 H   0  0  0  0  0  0  0  0  0  0  0  0
    0.3720    2.1250   -1.1024 H   0  0  0  0  0  0  0  0  0  0  0  0
    0.6825   -0.6451   -1.1695 H   0  0  0  0  0  0  0  0  0  0  0  0
   -0.2162   -1.9597   -0.3492 H   0  0  0  0  0  0  0  0  0  0  0  0
   -0.7353   -0.7156   -3.1202 H   0  0  0  0  0  0  0  0  0  0  0  0
   -0.2326   -2.3988   -2.7297 H   0  0  0  0  0  0  0  0  0  0  0  0
   -2.6457   -2.3523   -3.2612 H   0  0  0  0  0  0  0  0  0  0  0  0
   -2.4151   -2.7704   -1.5252 H   0  0  0  0  0  0  0  0  0  0  0  0
   -4.1989   -1.1272   -1.6711 H   0  0  0  0  0  0  0  0  0  0  0  0
   -3.2298   -0.0558   -2.7408 H   0  0  0  0  0  0  0  0  0  0  0  0
   -1.0549    0.8996    4.1128 Cu  0  0  0  0  0 15  0  0  0  0  0  0
  1  2  1  0
  2  3  2  0
  3  4  1  0
  4  5  2  0
  5  6  1  0
  6  7  2  0
  7  8  1  0
  8  9  2  0
  9 10  1  0
  9 11  1  0
 11 12  2  0
 12 13  1  0
 13 14  2  0
 14 15  1  0
 15 16  2  0
 16 17  1  0
 17 18  2  0
  6 19  1  0
 19 20  1  0
 20 21  1  0
 21 22  1  0
  7  2  1  0
 18  8  1  0
 22  5  1  0
 18 13  1  0
  3 23  1  0
  4 24  1  0
 11 25  1  0
 12 26  1  0
 14 27  1  0
 15 28  1  0
 16 29  1  0
 17 30  1  0
 19 31  1  0
 19 32  1  0
 20 33  1  0
 20 34  1  0
 21 35  1  0
 21 36  1  0
 22 37  1  0
 22 38  1  0
M  CHG  1  39   2
M  END
