
     RDKit          3D

 39 41  0  0  0  0  0  0  0  0999 V2000
   -1.5637   -0.0000   -0.0000 O   0  0  0  0  0  0  0  0  0  0  0  0
   -1.4307   -1.0050    0.8434 C   0  0  0  0  0  0  0  0  0  0  0  0
   -2.2543   -1.0720    1.9944 C   0  0  0  0  0  0  0  0  0  0  0  0
   -2.0575   -2.0620    2.9428 C   0  0  0  0  0  0  0  0  0  0  0  0
   -1.0154   -2.9960    2.8165 C   0  0  0  0  0  0  0  0  0  0  0  0
   -0.1781   -2.9477    1.6740 C   0  0  0  0  0  0  0  0  0  0  0  0
   -0.4150   -1.9993    0.6617 C   0  0  0  0  0  0  0  0  0  0  0  0
    0.4127   -2.0107   -0.5805 C   0  0  0  0  0  0  0  0  0  0  0  0
    1.4095   -1.0308   -0.8082 C   0  0  0  0  0  0  0  0  0  0  0  0
    1.5637    0.0000    0.0000 O   0  0  0  0  0  0  0  0  0  0  0  0
    2.2264   -1.1169   -1.9845 C   0  0  0  0  0  0  0  0  0  0  0  0
    2.0400   -2.1097   -2.9090 C   0  0  0  0  0  0  0  0  0  0  0  0
    0.9971   -3.0693   -2.7493 C   0  0  0  0  0  0  0  0  0  0  0  0
    0.7630   -4.0807   -3.7130 C   0  0  0  0  0  0  0  0  0  0  0  0
   -0.2598   -4.9973   -3.5531 C   0  0  0  0  0  0  0  0  0  0  0  0
   -1.0904   -4.9298   -2.4093 C   0  0  0  0  0  0  0  0  0  0  0  0
   -0.8822   -3.9616   -1.4474 C   0  0  0  0  0  0  0  0  0  0  0  0
    0.1659   -3.0024   -1.5784 C   0  0  0  0  0  0  0  0  0  0  0  0
    1.0115   -3.8868    1.5584 C   0  0  0  0  0  0  0  0  0  0  0  0
    0.9428   -5.1020    2.4859 C   0  0  0  0  0  0  0  0  0  0  0  0
    0.5525   -4.6816    3.9020 C   0  0  0  0  0  0  0  0  0  0  0  0
   -0.8430   -4.0561    3.8853 C   0  0  0  0  0  0  0  0  0  0  0  0
   -3.0381   -0.3178    2.1017 H   0  0  0  0  0  0  0  0  0  0  0  0
   -2.7079   -2.1089    3.8227 H   0  0  0  0  0  0  0  0  0  0  0  0
    2.9997   -0.3539   -2.1063 H   0  0  0  0  0  0  0  0  0  0  0  0
    2.6783   -2.1694   -3.7963 H   0  0  0  0  0  0  0  0  0  0  0  0
    1.4096   -4.1220   -4.5954 H   0  0  0  0  0  0  0  0  0  0  0  0
   -0.4297   -5.7711   -4.3074 H   0  0  0  0  0  0  0  0  0  0  0  0
   -1.9049   -5.6501   -2.2872 H   0  0  0  0  0  0  0  0  0  0  0  0
   -1.5264   -3.9176   -0.5670 H   0  0  0  0  0  0  0  0  0  0  0  0
    1.1337   -4.2161    0.5159 H   0  0  0  0  0  0  0  0  0  0  0  0
    1.9230   -3.3015    1.7902 H   0  0  0  0  0  0  0  0  0  0  0  0
    0.1936   -5.8211    2.1014 H   0  0  0  0  0  0  0  0  0  0  0  0
    1.9151   -5.6250    2.4811 H   0  0  0  0  0  0  0  0  0  0  0  0
    0.5715   -5.5431    4.5926 H   0  0  0  0  0  0  0  0  0  0  0  0
    1.2879   -3.9469    4.2829 H   0  0  0  0  0  0  0  0  0  0  0  0
   -1.0926   -3.6251    4.8715 H   0  0  0  0  0  0  0  0  0  0  0  0
   -1.5889   -4.8592    3.7129 H   0  0  0  0  0  0  0  0  0  0  0  0
   -0.0009    1.0326    0.0000 Cu  0  0  0  0  0 15  0  0  0  0  0  0
  1  2  1  0
  2  3  2  0
  3  4  1  0
  4  5  2  0
  5  6  1  0
  6  7  2  0
  7  8  1  0
  8  9  2  0
  9 10  1  0
  9 11  1  0
 11 12  2  0
 12 13  1  0
 13 14  2  0
 14 15  1  0
 15 16  2  0
 16 17  1  0
 17 18  2  0
  6 19  1  0
 19 20  1  0
 20 21  1  0
 21 22  1  0
  7  2  1  0
 18  8  1  0
 22  5  1  0
 18 13  1  0
  3 23  1  0
  4 24  1  0
 11 25  1  0
 12 26  1  0
 14 27  1  0
 15 28  1  0
 16 29  1  0
 17 30  1  0
 19 31  1  0
 19 32  1  0
 20 33  1  0
 20 34  1  0
 21 35  1  0
 21 36  1  0
 22 37  1  0
 22 38  1  0
M  CHG  1  39   2
M  END
$$$$
