
     RDKit          3D

 42 44  0  0  0  0  0  0  0  0999 V2000
    0.9955   -4.0226    1.3083 C   0  0  0  0  0  0  0  0  0  0  0  0
   -0.1404   -3.0430    1.4919 C   0  0  0  0  0  0  0  0  0  0  0  0
   -0.9811   -3.1516    2.6148 C   0  0  0  0  0  0  0  0  0  0  0  0
   -2.0262   -2.2466    2.8180 C   0  0  0  0  0  0  0  0  0  0  0  0
   -2.2189   -1.1957    1.9282 C   0  0  0  0  0  0  0  0  0  0  0  0
   -1.3913   -1.0522    0.7898 C   0  0  0  0  0  0  0  0  0  0  0  0
   -1.5435   -0.0000    0.0000 O   0  0  0  0  0  0  0  0  0  0  0  0
   -0.3716   -2.0290    0.5440 C   0  0  0  0  0  0  0  0  0  0  0  0
    0.4510   -1.9800   -0.6997 C   0  0  0  0  0  0  0  0  0  0  0  0
    1.4282   -0.9691   -0.8824 C   0  0  0  0  0  0  0  0  0  0  0  0
    1.5435    0.0000   -0.0000 O   0  0  0  0  0  0  0  0  0  0  0  0
    2.2377   -0.9371   -2.0848 C   0  0  0  0  0  0  0  0  0  0  0  0
    3.2337    0.1421   -2.2879 C   0  0  0  0  0  0  0  0  0  0  0  0
    4.0538    0.6036   -1.2400 C   0  0  0  0  0  0  0  0  0  0  0  0
    5.0031    1.6020   -1.4633 C   0  0  0  0  0  0  0  0  0  0  0  0
    5.1511    2.1688   -2.7337 C   0  0  0  0  0  0  0  0  0  0  0  0
    4.3395    1.7260   -3.7821 C   0  0  0  0  0  0  0  0  0  0  0  0
    3.3919    0.7247   -3.5596 C   0  0  0  0  0  0  0  0  0  0  0  0
    2.0390   -1.9090   -3.0423 C   0  0  0  0  0  0  0  0  0  0  0  0
    1.0339   -2.9063   -2.9153 C   0  0  0  0  0  0  0  0  0  0  0  0
    0.8222   -3.8771   -3.9263 C   0  0  0  0  0  0  0  0  0  0  0  0
   -0.1789   -4.8227   -3.8068 C   0  0  0  0  0  0  0  0  0  0  0  0
   -1.0112   -4.8291   -2.6608 C   0  0  0  0  0  0  0  0  0  0  0  0
   -0.8208   -3.9064   -1.6525 C   0  0  0  0  0  0  0  0  0  0  0  0
    0.2109   -2.9247   -1.7383 C   0  0  0  0  0  0  0  0  0  0  0  0
    1.9418   -3.4999    1.0870 H   0  0  0  0  0  0  0  0  0  0  0  0
    0.8080   -4.7109    0.4648 H   0  0  0  0  0  0  0  0  0  0  0  0
    1.1409   -4.6315    2.2160 H   0  0  0  0  0  0  0  0  0  0  0  0
   -0.8109   -3.9611    3.3307 H   0  0  0  0  0  0  0  0  0  0  0  0
   -2.6786   -2.3517    3.6905 H   0  0  0  0  0  0  0  0  0  0  0  0
   -3.0059   -0.4518    2.0764 H   0  0  0  0  0  0  0  0  0  0  0  0
    3.9473    0.1676   -0.2461 H   0  0  0  0  0  0  0  0  0  0  0  0
    5.6365    1.9386   -0.6368 H   0  0  0  0  0  0  0  0  0  0  0  0
    5.8938    2.9540   -2.9046 H   0  0  0  0  0  0  0  0  0  0  0  0
    4.4381    2.1677   -4.7785 H   0  0  0  0  0  0  0  0  0  0  0  0
    2.7450    0.4018   -4.3801 H   0  0  0  0  0  0  0  0  0  0  0  0
    2.6685   -1.9209   -3.9366 H   0  0  0  0  0  0  0  0  0  0  0  0
    1.4643   -3.8595   -4.8125 H   0  0  0  0  0  0  0  0  0  0  0  0
   -0.3340   -5.5625   -4.5976 H   0  0  0  0  0  0  0  0  0  0  0  0
   -1.8111   -5.5705   -2.5759 H   0  0  0  0  0  0  0  0  0  0  0  0
   -1.4647   -3.9142   -0.7708 H   0  0  0  0  0  0  0  0  0  0  0  0
   -0.0033    1.0541    0.0000 Cu  0  0  0  0  0 15  0  0  0  0  0  0
  1  2  1  0
  2  3  2  0
  3  4  1  0
  4  5  2  0
  5  6  1  0
  6  7  1  0
  6  8  2  0
  8  9  1  0
  9 10  2  0
 10 11  1  0
 10 12  1  0
 12 13  1  0
 13 14  2  0
 14 15  1  0
 15 16  2  0
 16 17  1  0
 17 18  2  0
 12 19  2  0
 19 20  1  0
 20 21  2  0
 21 22  1  0
 22 23  2  0
 23 24  1  0
 24 25  2  0
  8  2  1  0
 25  9  1  0
 18 13  1  0
 25 20  1  0
  1 26  1  0
  1 27  1  0
  1 28  1  0
  3 29  1  0
  4 30  1  0
  5 31  1  0
 14 32  1  0
 15 33  1  0
 16 34  1  0
 17 35  1  0
 18 36  1  0
 19 37  1  0
 21 38  1  0
 22 39  1  0
 23 40  1  0
 24 41  1  0
M  CHG  1  42   2
M  END
$$$$
