
     RDKit          3D

 49 51  0  0  0  0  0  0  0  0999 V2000
    5.1730   -0.2522   -1.4837 C   0  0  0  0  0  0  0  0  0  0  0  0
    4.2471   -1.0879   -0.8559 O   0  0  0  0  0  0  0  0  0  0  0  0
    3.1422   -1.4083   -1.6742 C   0  0  0  0  0  0  0  0  0  0  0  0
    2.0921   -2.1036   -0.8559 C   0  0  0  0  0  0  0  0  0  0  0  0
    1.9142   -3.4635   -0.9198 C   0  0  0  0  0  0  0  0  0  0  0  0
    0.9224   -4.1266   -0.1476 C   0  0  0  0  0  0  0  0  0  0  0  0
    0.7153   -5.5263   -0.2353 C   0  0  0  0  0  0  0  0  0  0  0  0
   -0.2617   -6.1522    0.5150 C   0  0  0  0  0  0  0  0  0  0  0  0
   -1.0741   -5.3873    1.3878 C   0  0  0  0  0  0  0  0  0  0  0  0
   -0.8909   -4.0248    1.5035 C   0  0  0  0  0  0  0  0  0  0  0  0
    0.1136   -3.3466    0.7482 C   0  0  0  0  0  0  0  0  0  0  0  0
    0.3336   -1.9457    0.8664 C   0  0  0  0  0  0  0  0  0  0  0  0
   -0.4582   -1.1257    1.8282 C   0  0  0  0  0  0  0  0  0  0  0  0
   -1.3174   -0.1433    1.2962 C   0  0  0  0  0  0  0  0  0  0  0  0
   -1.4658    0.0000    0.0000 O   0  0  0  0  0  0  0  0  0  0  0  0
   -1.8192    0.9091    2.1540 C   0  0  0  0  0  0  0  0  0  0  0  0
   -2.3279    2.1175    1.4326 C   0  0  0  0  0  0  0  0  0  0  0  0
   -1.2042    2.7040    0.6948 O   0  0  0  0  0  0  0  0  0  0  0  0
   -1.5824    3.7918   -0.1349 C   0  0  0  0  0  0  0  0  0  0  0  0
   -1.6300    0.8481    3.5117 C   0  0  0  0  0  0  0  0  0  0  0  0
   -0.8913   -0.2223    4.0969 C   0  0  0  0  0  0  0  0  0  0  0  0
   -0.7025   -0.3100    5.4980 C   0  0  0  0  0  0  0  0  0  0  0  0
    0.1090   -1.2852    6.0484 C   0  0  0  0  0  0  0  0  0  0  0  0
    0.7760   -2.2055    5.2051 C   0  0  0  0  0  0  0  0  0  0  0  0
    0.6079   -2.1535    3.8358 C   0  0  0  0  0  0  0  0  0  0  0  0
   -0.2451   -1.1809    3.2356 C   0  0  0  0  0  0  0  0  0  0  0  0
    1.2879   -1.3004    0.0353 C   0  0  0  0  0  0  0  0  0  0  0  0
    1.4658   -0.0000   -0.0000 O   0  0  0  0  0  0  0  0  0  0  0  0
    5.9935   -0.0647   -0.7707 H   0  0  0  0  0  0  0  0  0  0  0  0
    4.7221    0.7235   -1.7724 H   0  0  0  0  0  0  0  0  0  0  0  0
    5.6009   -0.7140   -2.4024 H   0  0  0  0  0  0  0  0  0  0  0  0
    3.4650   -2.0612   -2.5139 H   0  0  0  0  0  0  0  0  0  0  0  0
    2.7146   -0.4807   -2.1062 H   0  0  0  0  0  0  0  0  0  0  0  0
    2.5409   -4.0599   -1.5913 H   0  0  0  0  0  0  0  0  0  0  0  0
    1.3463   -6.1057   -0.9170 H   0  0  0  0  0  0  0  0  0  0  0  0
   -0.4117   -7.2329    0.4352 H   0  0  0  0  0  0  0  0  0  0  0  0
   -1.8538   -5.8817    1.9753 H   0  0  0  0  0  0  0  0  0  0  0  0
   -1.5226   -3.4447    2.1791 H   0  0  0  0  0  0  0  0  0  0  0  0
   -2.7031    2.8892    2.1268 H   0  0  0  0  0  0  0  0  0  0  0  0
   -3.1065    1.8589    0.6955 H   0  0  0  0  0  0  0  0  0  0  0  0
   -2.0720    4.5801    0.4672 H   0  0  0  0  0  0  0  0  0  0  0  0
   -0.6632    4.2004   -0.5832 H   0  0  0  0  0  0  0  0  0  0  0  0
   -2.2730    3.4603   -0.9342 H   0  0  0  0  0  0  0  0  0  0  0  0
   -1.9985    1.6493    4.1614 H   0  0  0  0  0  0  0  0  0  0  0  0
   -1.2037    0.4199    6.1417 H   0  0  0  0  0  0  0  0  0  0  0  0
    0.2455   -1.3398    7.1323 H   0  0  0  0  0  0  0  0  0  0  0  0
    1.4307   -2.9651    5.6425 H   0  0  0  0  0  0  0  0  0  0  0  0
    1.1242   -2.8663    3.1915 H   0  0  0  0  0  0  0  0  0  0  0  0
    0.0781    1.2425   -0.0000 Cu  0  0  0  0  0 15  0  0  0  0  0  0
  1  2  1  0
  2  3  1  0
  3  4  1  0
  4  5  2  0
  5  6  1  0
  6  7  2  0
  7  8  1  0
  8  9  2  0
  9 10  1  0
 10 11  2  0
 11 12  1  0
 12 13  1  0
 13 14  2  0
 14 15  1  0
 14 16  1  0
 16 17  1  0
 17 18  1  0
 18 19  1  0
 16 20  2  0
 20 21  1  0
 21 22  2  0
 22 23  1  0
 23 24  2  0
 24 25  1  0
 25 26  2  0
 12 27  2  0
 27 28  1  0
 27  4  1  0
 11  6  1  0
 26 13  1  0
 26 21  1  0
  1 29  1  0
  1 30  1  0
  1 31  1  0
  3 32  1  0
  3 33  1  0
  5 34  1  0
  7 35  1  0
  8 36  1  0
  9 37  1  0
 10 38  1  0
 17 39  1  0
 17 40  1  0
 19 41  1  0
 19 42  1  0
 19 43  1  0
 20 44  1  0
 22 45  1  0
 23 46  1  0
 24 47  1  0
 25 48  1  0
M  CHG  1  49   2
M  END
$$$$
