
     RDKit          3D

 59 63  0  0  0  0  0  0  0  0999 V2000
    8.4366    2.1986   -3.4292 C   0  0  0  0  0  0  0  0  0  0  0  0
    8.0012    2.2307   -2.0740 O   0  0  0  0  0  0  0  0  0  0  0  0
    6.8344    1.6109   -1.6023 C   0  0  0  0  0  0  0  0  0  0  0  0
    6.5251    1.7228   -0.2428 C   0  0  0  0  0  0  0  0  0  0  0  0
    5.3745    1.1235    0.2770 C   0  0  0  0  0  0  0  0  0  0  0  0
    4.5077    0.3983   -0.5596 C   0  0  0  0  0  0  0  0  0  0  0  0
    3.2840   -0.2383   -0.0088 C   0  0  0  0  0  0  0  0  0  0  0  0
    2.0761   -0.1949   -0.7225 C   0  0  0  0  0  0  0  0  0  0  0  0
    0.9217   -0.7879   -0.2085 C   0  0  0  0  0  0  0  0  0  0  0  0
    0.9421   -1.4368    1.0422 C   0  0  0  0  0  0  0  0  0  0  0  0
   -0.2196   -2.0377    1.5959 C   0  0  0  0  0  0  0  0  0  0  0  0
   -1.5407   -1.9713    0.9141 C   0  0  0  0  0  0  0  0  0  0  0  0
   -2.0831   -3.1533    0.3767 C   0  0  0  0  0  0  0  0  0  0  0  0
   -1.4092   -4.3623    0.5169 O   0  0  0  0  0  0  0  0  0  0  0  0
   -3.3039   -3.1289   -0.2987 C   0  0  0  0  0  0  0  0  0  0  0  0
   -4.0081   -1.9348   -0.4399 C   0  0  0  0  0  0  0  0  0  0  0  0
   -3.5061   -0.7477    0.1108 C   0  0  0  0  0  0  0  0  0  0  0  0
   -4.2320    0.4467   -0.0182 C   0  0  0  0  0  0  0  0  0  0  0  0
   -3.7548    1.6412    0.5463 C   0  0  0  0  0  0  0  0  0  0  0  0
   -4.5263    2.9026    0.4054 C   0  0  0  0  0  0  0  0  0  0  0  0
   -5.1444    3.2305   -0.8164 C   0  0  0  0  0  0  0  0  0  0  0  0
   -5.8694    4.4189   -0.9468 C   0  0  0  0  0  0  0  0  0  0  0  0
   -5.9866    5.2912    0.1376 C   0  0  0  0  0  0  0  0  0  0  0  0
   -5.3785    4.9772    1.3550 C   0  0  0  0  0  0  0  0  0  0  0  0
   -4.6514    3.7906    1.4909 C   0  0  0  0  0  0  0  0  0  0  0  0
   -2.5406    1.6243    1.2504 C   0  0  0  0  0  0  0  0  0  0  0  0
   -1.8090    0.4428    1.3831 C   0  0  0  0  0  0  0  0  0  0  0  0
   -2.2700   -0.7574    0.8064 C   0  0  0  0  0  0  0  0  0  0  0  0
   -0.1240   -2.7309    2.8167 C   0  0  0  0  0  0  0  0  0  0  0  0
   -1.2385   -3.3704    3.3502 O   0  0  0  0  0  0  0  0  0  0  0  0
    1.0886   -2.7895    3.5046 C   0  0  0  0  0  0  0  0  0  0  0  0
    2.2246   -2.1715    2.9854 C   0  0  0  0  0  0  0  0  0  0  0  0
    2.1657   -1.4992    1.7569 C   0  0  0  0  0  0  0  0  0  0  0  0
    3.3195   -0.8973    1.2312 C   0  0  0  0  0  0  0  0  0  0  0  0
    4.8190    0.2866   -1.9263 C   0  0  0  0  0  0  0  0  0  0  0  0
    5.9710    0.8859   -2.4443 C   0  0  0  0  0  0  0  0  0  0  0  0
    7.6750    2.6692   -4.0863 H   0  0  0  0  0  0  0  0  0  0  0  0
    8.6204    1.1504   -3.7465 H   0  0  0  0  0  0  0  0  0  0  0  0
    9.3841    2.7682   -3.5192 H   0  0  0  0  0  0  0  0  0  0  0  0
    7.1794    2.2811    0.4149 H   0  0  0  0  0  0  0  0  0  0  0  0
    5.1536    1.2423    1.3303 H   0  0  0  0  0  0  0  0  0  0  0  0
    2.0189    0.3145   -1.6764 H   0  0  0  0  0  0  0  0  0  0  0  0
    0.0173   -0.7335   -0.7997 H   0  0  0  0  0  0  0  0  0  0  0  0
   -3.7093   -4.0421   -0.7156 H   0  0  0  0  0  0  0  0  0  0  0  0
   -4.9527   -1.9417   -0.9710 H   0  0  0  0  0  0  0  0  0  0  0  0
   -5.1815    0.4418   -0.5412 H   0  0  0  0  0  0  0  0  0  0  0  0
   -5.0523    2.5771   -1.6749 H   0  0  0  0  0  0  0  0  0  0  0  0
   -6.3380    4.6652   -1.8909 H   0  0  0  0  0  0  0  0  0  0  0  0
   -6.5486    6.2105    0.0345 H   0  0  0  0  0  0  0  0  0  0  0  0
   -5.4731    5.6522    2.1957 H   0  0  0  0  0  0  0  0  0  0  0  0
   -4.2024    3.5592    2.4486 H   0  0  0  0  0  0  0  0  0  0  0  0
   -2.1455    2.5328    1.6876 H   0  0  0  0  0  0  0  0  0  0  0  0
   -0.8828    0.4799    1.9410 H   0  0  0  0  0  0  0  0  0  0  0  0
    1.1504   -3.3185    4.4471 H   0  0  0  0  0  0  0  0  0  0  0  0
    3.1538   -2.2293    3.5400 H   0  0  0  0  0  0  0  0  0  0  0  0
    4.2529   -0.9605    1.7791 H   0  0  0  0  0  0  0  0  0  0  0  0
    4.1804   -0.2797   -2.5926 H   0  0  0  0  0  0  0  0  0  0  0  0
    6.1821    0.7766   -3.4993 H   0  0  0  0  0  0  0  0  0  0  0  0
   -1.8810   -4.9237    2.3373 Cu  0  0  0  0  0 15  0  0  0  0  0  0
  1  2  1  0
  2  3  1  0
  3  4  2  0
  4  5  1  0
  5  6  2  0
  6  7  1  0
  7  8  2  0
  8  9  1  0
  9 10  2  0
 10 11  1  0
 11 12  1  0
 12 13  2  0
 13 14  1  0
 13 15  1  0
 15 16  2  0
 16 17  1  0
 17 18  2  0
 18 19  1  0
 19 20  1  0
 20 21  2  0
 21 22  1  0
 22 23  2  0
 23 24  1  0
 24 25  2  0
 19 26  2  0
 26 27  1  0
 27 28  2  0
 11 29  2  0
 29 30  1  0
 29 31  1  0
 31 32  2  0
 32 33  1  0
 33 34  2  0
  6 35  1  0
 35 36  2  0
 36  3  1  0
 34  7  1  0
 33 10  1  0
 28 12  1  0
 28 17  1  0
 25 20  1  0
  1 37  1  0
  1 38  1  0
  1 39  1  0
  4 40  1  0
  5 41  1  0
  8 42  1  0
  9 43  1  0
 15 44  1  0
 16 45  1  0
 18 46  1  0
 21 47  1  0
 22 48  1  0
 23 49  1  0
 24 50  1  0
 25 51  1  0
 26 52  1  0
 27 53  1  0
 31 54  1  0
 32 55  1  0
 34 56  1  0
 35 57  1  0
 36 58  1  0
M  CHG  1  59   2
M  END
