
     RDKit          3D

 52 55  0  0  0  0  0  0  0  0999 V2000
   -1.7373   -0.0000   -0.0000 O   0  0  0  0  0  0  0  0  0  0  0  0
   -1.5947   -1.1075    0.6806 C   0  0  0  0  0  0  0  0  0  0  0  0
   -2.6533   -1.4464    1.5980 C   0  0  0  0  0  0  0  0  0  0  0  0
   -2.5956   -2.5535    2.3926 C   0  0  0  0  0  0  0  0  0  0  0  0
   -1.4608   -3.4238    2.3614 C   0  0  0  0  0  0  0  0  0  0  0  0
   -1.3668   -4.5410    3.2226 C   0  0  0  0  0  0  0  0  0  0  0  0
   -0.2594   -5.3721    3.1954 C   0  0  0  0  0  0  0  0  0  0  0  0
    0.7983   -5.0910    2.3047 C   0  0  0  0  0  0  0  0  0  0  0  0
    0.7301   -4.0030    1.4530 C   0  0  0  0  0  0  0  0  0  0  0  0
   -0.4037   -3.1441    1.4370 C   0  0  0  0  0  0  0  0  0  0  0  0
   -0.4845   -2.0125    0.5433 C   0  0  0  0  0  0  0  0  0  0  0  0
    0.4831   -1.9946   -0.5914 C   0  0  0  0  0  0  0  0  0  0  0  0
    1.5878   -1.0748   -0.7212 C   0  0  0  0  0  0  0  0  0  0  0  0
    1.7373    0.0000    0.0000 O   0  0  0  0  0  0  0  0  0  0  0  0
    2.6090   -1.3541   -1.7005 C   0  0  0  0  0  0  0  0  0  0  0  0
    2.4919   -2.3831   -2.5877 C   0  0  0  0  0  0  0  0  0  0  0  0
    1.3411   -3.2328   -2.5813 C   0  0  0  0  0  0  0  0  0  0  0  0
    1.1232   -4.1740   -3.6121 C   0  0  0  0  0  0  0  0  0  0  0  0
   -0.0299   -4.9393   -3.6645 C   0  0  0  0  0  0  0  0  0  0  0  0
   -0.3777   -5.7631   -4.8833 C   0  0  0  0  0  0  0  0  0  0  0  0
   -1.5765   -5.3516   -5.5152 O   0  0  0  0  0  0  0  0  0  0  0  0
   -1.6040   -4.0078   -5.9765 C   0  0  0  0  0  0  0  0  0  0  0  0
   -2.0467   -3.0148   -4.9181 C   0  0  0  0  0  0  0  0  0  0  0  0
   -1.2249   -1.9580   -4.5090 C   0  0  0  0  0  0  0  0  0  0  0  0
   -1.6103   -1.1203   -3.4587 C   0  0  0  0  0  0  0  0  0  0  0  0
   -2.8341   -1.3173   -2.8145 C   0  0  0  0  0  0  0  0  0  0  0  0
   -3.6780   -2.3491   -3.2416 C   0  0  0  0  0  0  0  0  0  0  0  0
   -3.2848   -3.1917   -4.2826 C   0  0  0  0  0  0  0  0  0  0  0  0
   -0.9716   -4.8136   -2.6153 C   0  0  0  0  0  0  0  0  0  0  0  0
   -0.7903   -3.8982   -1.6026 C   0  0  0  0  0  0  0  0  0  0  0  0
    0.3560   -3.0546   -1.5609 C   0  0  0  0  0  0  0  0  0  0  0  0
   -3.4981   -0.7542    1.6310 H   0  0  0  0  0  0  0  0  0  0  0  0
   -3.4120   -2.7808    3.0857 H   0  0  0  0  0  0  0  0  0  0  0  0
   -2.1886   -4.7366    3.9185 H   0  0  0  0  0  0  0  0  0  0  0  0
   -0.1975   -6.2323    3.8680 H   0  0  0  0  0  0  0  0  0  0  0  0
    1.6856   -5.7308    2.2941 H   0  0  0  0  0  0  0  0  0  0  0  0
    1.5680   -3.7846    0.7890 H   0  0  0  0  0  0  0  0  0  0  0  0
    3.4578   -0.6663   -1.7173 H   0  0  0  0  0  0  0  0  0  0  0  0
    3.2625   -2.5495   -3.3475 H   0  0  0  0  0  0  0  0  0  0  0  0
    1.8609   -4.2446   -4.4186 H   0  0  0  0  0  0  0  0  0  0  0  0
   -0.5514   -6.8185   -4.6113 H   0  0  0  0  0  0  0  0  0  0  0  0
    0.4658   -5.7311   -5.6044 H   0  0  0  0  0  0  0  0  0  0  0  0
   -2.3229   -4.0098   -6.8143 H   0  0  0  0  0  0  0  0  0  0  0  0
   -0.6156   -3.7151   -6.3839 H   0  0  0  0  0  0  0  0  0  0  0  0
   -0.2509   -1.8165   -4.9868 H   0  0  0  0  0  0  0  0  0  0  0  0
   -0.9394   -0.3283   -3.1136 H   0  0  0  0  0  0  0  0  0  0  0  0
   -3.1074   -0.6767   -1.9724 H   0  0  0  0  0  0  0  0  0  0  0  0
   -4.6414   -2.5073   -2.7466 H   0  0  0  0  0  0  0  0  0  0  0  0
   -3.9282   -4.0219   -4.5904 H   0  0  0  0  0  0  0  0  0  0  0  0
   -1.8913   -5.4027   -2.6534 H   0  0  0  0  0  0  0  0  0  0  0  0
   -1.5709   -3.7712   -0.8529 H   0  0  0  0  0  0  0  0  0  0  0  0
   -0.0006    0.6972   -0.0000 Cu  0  0  0  0  0 15  0  0  0  0  0  0
  1  2  1  0
  2  3  2  0
  3  4  1  0
  4  5  2  0
  5  6  1  0
  6  7  2  0
  7  8  1  0
  8  9  2  0
  9 10  1  0
 10 11  2  0
 11 12  1  0
 12 13  2  0
 13 14  1  0
 13 15  1  0
 15 16  2  0
 16 17  1  0
 17 18  2  0
 18 19  1  0
 19 20  1  0
 20 21  1  0
 21 22  1  0
 22 23  1  0
 23 24  2  0
 24 25  1  0
 25 26  2  0
 26 27  1  0
 27 28  2  0
 19 29  2  0
 29 30  1  0
 30 31  2  0
 11  2  1  0
 31 12  1  0
 10  5  1  0
 31 17  1  0
 28 23  1  0
  3 32  1  0
  4 33  1  0
  6 34  1  0
  7 35  1  0
  8 36  1  0
  9 37  1  0
 15 38  1  0
 16 39  1  0
 18 40  1  0
 20 41  1  0
 20 42  1  0
 22 43  1  0
 22 44  1  0
 24 45  1  0
 25 46  1  0
 26 47  1  0
 27 48  1  0
 28 49  1  0
 29 50  1  0
 30 51  1  0
M  CHG  1  52   2
M  END
$$$$
