
     RDKit          3D

 52 55  0  0  0  0  0  0  0  0999 V2000
   -0.2178   -2.6867    1.8333 O   0  0  0  0  0  0  0  0  0  0  0  0
   -1.4004   -1.9858    1.6189 C   0  0  0  0  0  0  0  0  0  0  0  0
   -2.4277   -2.0801    2.5587 C   0  0  0  0  0  0  0  0  0  0  0  0
   -3.6298   -1.4033    2.3605 C   0  0  0  0  0  0  0  0  0  0  0  0
   -3.8260   -0.6343    1.2057 C   0  0  0  0  0  0  0  0  0  0  0  0
   -5.0467    0.0282    1.0016 C   0  0  0  0  0  0  0  0  0  0  0  0
   -5.2541    0.7807   -0.1553 C   0  0  0  0  0  0  0  0  0  0  0  0
   -4.2505    0.8745   -1.1195 C   0  0  0  0  0  0  0  0  0  0  0  0
   -3.0295    0.2228   -0.9314 C   0  0  0  0  0  0  0  0  0  0  0  0
   -2.7918   -0.5315    0.2376 C   0  0  0  0  0  0  0  0  0  0  0  0
   -1.5581   -1.1963    0.4648 C   0  0  0  0  0  0  0  0  0  0  0  0
   -0.4217   -1.0945   -0.4895 C   0  0  0  0  0  0  0  0  0  0  0  0
   -0.0492   -2.2378   -1.2201 C   0  0  0  0  0  0  0  0  0  0  0  0
   -0.7236   -3.4402   -1.0335 O   0  0  0  0  0  0  0  0  0  0  0  0
    1.0049   -2.1829   -2.1326 C   0  0  0  0  0  0  0  0  0  0  0  0
    1.7168   -0.9996   -2.3173 C   0  0  0  0  0  0  0  0  0  0  0  0
    1.3901    0.1450   -1.5780 C   0  0  0  0  0  0  0  0  0  0  0  0
    2.1508    1.3146   -1.7261 C   0  0  0  0  0  0  0  0  0  0  0  0
    1.8781    2.4433   -0.9414 C   0  0  0  0  0  0  0  0  0  0  0  0
    2.7987    3.6362   -0.9735 C   0  0  0  0  0  0  0  0  0  0  0  0
    3.4009    3.8523    0.2923 O   0  0  0  0  0  0  0  0  0  0  0  0
    4.4664    2.9456    0.5309 C   0  0  0  0  0  0  0  0  0  0  0  0
    3.9610    1.6698    1.1577 C   0  0  0  0  0  0  0  0  0  0  0  0
    4.2544    0.4236    0.5776 C   0  0  0  0  0  0  0  0  0  0  0  0
    3.7172   -0.7490    1.1178 C   0  0  0  0  0  0  0  0  0  0  0  0
    2.8975   -0.6884    2.2477 C   0  0  0  0  0  0  0  0  0  0  0  0
    2.6219    0.5440    2.8458 C   0  0  0  0  0  0  0  0  0  0  0  0
    3.1557    1.7193    2.3081 C   0  0  0  0  0  0  0  0  0  0  0  0
    0.8051    2.4160   -0.0421 C   0  0  0  0  0  0  0  0  0  0  0  0
    0.0358    1.2617    0.1085 C   0  0  0  0  0  0  0  0  0  0  0  0
    0.3169    0.1071   -0.6502 C   0  0  0  0  0  0  0  0  0  0  0  0
   -2.2933   -2.6835    3.4475 H   0  0  0  0  0  0  0  0  0  0  0  0
   -4.4119   -1.4910    3.1054 H   0  0  0  0  0  0  0  0  0  0  0  0
   -5.8416   -0.0393    1.7350 H   0  0  0  0  0  0  0  0  0  0  0  0
   -6.1980    1.2880   -0.3076 H   0  0  0  0  0  0  0  0  0  0  0  0
   -4.4200    1.4533   -2.0184 H   0  0  0  0  0  0  0  0  0  0  0  0
   -2.2805    0.3113   -1.7071 H   0  0  0  0  0  0  0  0  0  0  0  0
    1.2795   -3.0662   -2.6952 H   0  0  0  0  0  0  0  0  0  0  0  0
    2.5380   -0.9851   -3.0242 H   0  0  0  0  0  0  0  0  0  0  0  0
    2.9901    1.3301   -2.4122 H   0  0  0  0  0  0  0  0  0  0  0  0
    2.1867    4.5303   -1.2160 H   0  0  0  0  0  0  0  0  0  0  0  0
    3.5533    3.5624   -1.7896 H   0  0  0  0  0  0  0  0  0  0  0  0
    5.1624    3.4217    1.2529 H   0  0  0  0  0  0  0  0  0  0  0  0
    5.0738    2.7447   -0.3817 H   0  0  0  0  0  0  0  0  0  0  0  0
    4.8727    0.3614   -0.3092 H   0  0  0  0  0  0  0  0  0  0  0  0
    3.9287   -1.7039    0.6544 H   0  0  0  0  0  0  0  0  0  0  0  0
    2.4771   -1.5963    2.6604 H   0  0  0  0  0  0  0  0  0  0  0  0
    1.9876    0.5895    3.7216 H   0  0  0  0  0  0  0  0  0  0  0  0
    2.9211    2.6697    2.7711 H   0  0  0  0  0  0  0  0  0  0  0  0
    0.5922    3.2785    0.5775 H   0  0  0  0  0  0  0  0  0  0  0  0
   -0.7585    1.2748    0.8426 H   0  0  0  0  0  0  0  0  0  0  0  0
   -0.1708   -4.2606    0.6617 Cu  0  0  0  0  0 15  0  0  0  0  0  0
  1  2  1  0
  2  3  2  0
  3  4  1  0
  4  5  2  0
  5  6  1  0
  6  7  2  0
  7  8  1  0
  8  9  2  0
  9 10  1  0
 10 11  2  0
 11 12  1  0
 12 13  2  0
 13 14  1  0
 13 15  1  0
 15 16  2  0
 16 17  1  0
 17 18  2  0
 18 19  1  0
 19 20  1  0
 20 21  1  0
 21 22  1  0
 22 23  1  0
 23 24  2  0
 24 25  1  0
 25 26  2  0
 26 27  1  0
 27 28  2  0
 19 29  2  0
 29 30  1  0
 30 31  2  0
 11  2  1  0
 31 12  1  0
 10  5  1  0
 31 17  1  0
 28 23  1  0
  3 32  1  0
  4 33  1  0
  6 34  1  0
  7 35  1  0
  8 36  1  0
  9 37  1  0
 15 38  1  0
 16 39  1  0
 18 40  1  0
 20 41  1  0
 20 42  1  0
 22 43  1  0
 22 44  1  0
 24 45  1  0
 25 46  1  0
 26 47  1  0
 27 48  1  0
 28 49  1  0
 29 50  1  0
 30 51  1  0
M  CHG  1  52   2
M  END
