
     RDKit          3D

 55 59  0  0  0  0  0  0  0  0999 V2000
    1.2248   -2.7668   -1.8557 O   0  0  0  0  0  0  0  0  0  0  0  0
    1.7102   -2.0760   -0.7500 C   0  0  0  0  0  0  0  0  0  0  0  0
    2.9757   -2.3897   -0.2528 C   0  0  0  0  0  0  0  0  0  0  0  0
    3.4933   -1.7018    0.8431 C   0  0  0  0  0  0  0  0  0  0  0  0
    2.7551   -0.6748    1.4473 C   0  0  0  0  0  0  0  0  0  0  0  0
    3.2917    0.0261    2.5385 C   0  0  0  0  0  0  0  0  0  0  0  0
    2.5721    1.0683    3.1462 C   0  0  0  0  0  0  0  0  0  0  0  0
    3.1439    1.8071    4.3009 C   0  0  0  0  0  0  0  0  0  0  0  0
    2.3328    2.1609    5.3960 C   0  0  0  0  0  0  0  0  0  0  0  0
    2.8733    2.8561    6.4822 C   0  0  0  0  0  0  0  0  0  0  0  0
    4.2252    3.2064    6.4878 C   0  0  0  0  0  0  0  0  0  0  0  0
    5.0400    2.8620    5.4071 C   0  0  0  0  0  0  0  0  0  0  0  0
    4.5052    2.1660    4.3186 C   0  0  0  0  0  0  0  0  0  0  0  0
    1.3061    1.4058    2.6426 C   0  0  0  0  0  0  0  0  0  0  0  0
    0.7620    0.7152    1.5583 C   0  0  0  0  0  0  0  0  0  0  0  0
    1.4686   -0.3419    0.9513 C   0  0  0  0  0  0  0  0  0  0  0  0
    0.9347   -1.0702   -0.1445 C   0  0  0  0  0  0  0  0  0  0  0  0
   -0.4226   -0.7909   -0.6868 C   0  0  0  0  0  0  0  0  0  0  0  0
   -0.5311   -0.1953   -1.9574 C   0  0  0  0  0  0  0  0  0  0  0  0
    0.6240    0.0573   -2.6944 O   0  0  0  0  0  0  0  0  0  0  0  0
   -1.7921    0.1227   -2.4957 C   0  0  0  0  0  0  0  0  0  0  0  0
   -1.9160    0.7778   -3.8204 C   0  0  0  0  0  0  0  0  0  0  0  0
   -2.7932    0.2585   -4.7896 C   0  0  0  0  0  0  0  0  0  0  0  0
   -2.9176    0.8809   -6.0356 C   0  0  0  0  0  0  0  0  0  0  0  0
   -2.1736    2.0279   -6.3233 C   0  0  0  0  0  0  0  0  0  0  0  0
   -1.3055    2.5563   -5.3647 C   0  0  0  0  0  0  0  0  0  0  0  0
   -1.1771    1.9373   -4.1174 C   0  0  0  0  0  0  0  0  0  0  0  0
   -2.9494   -0.1895   -1.7691 C   0  0  0  0  0  0  0  0  0  0  0  0
   -2.8644   -0.8129   -0.5184 C   0  0  0  0  0  0  0  0  0  0  0  0
   -4.0359   -1.1298    0.1883 C   0  0  0  0  0  0  0  0  0  0  0  0
   -3.9602   -1.7643    1.4287 C   0  0  0  0  0  0  0  0  0  0  0  0
   -2.7187   -2.0925    1.9724 C   0  0  0  0  0  0  0  0  0  0  0  0
   -1.5442   -1.7826    1.2832 C   0  0  0  0  0  0  0  0  0  0  0  0
   -1.5966   -1.1276    0.0334 C   0  0  0  0  0  0  0  0  0  0  0  0
    3.5619   -3.1707   -0.7203 H   0  0  0  0  0  0  0  0  0  0  0  0
    4.4779   -1.9652    1.2114 H   0  0  0  0  0  0  0  0  0  0  0  0
    4.2661   -0.2507    2.9249 H   0  0  0  0  0  0  0  0  0  0  0  0
    1.2860    1.8850    5.4200 H   0  0  0  0  0  0  0  0  0  0  0  0
    2.2436    3.1205    7.3219 H   0  0  0  0  0  0  0  0  0  0  0  0
    4.6414    3.7448    7.3294 H   0  0  0  0  0  0  0  0  0  0  0  0
    6.0867    3.1375    5.4107 H   0  0  0  0  0  0  0  0  0  0  0  0
    5.1513    1.9245    3.4839 H   0  0  0  0  0  0  0  0  0  0  0  0
    0.7410    2.2210    3.0771 H   0  0  0  0  0  0  0  0  0  0  0  0
   -0.2108    1.0222    1.1976 H   0  0  0  0  0  0  0  0  0  0  0  0
   -3.3715   -0.6342   -4.5855 H   0  0  0  0  0  0  0  0  0  0  0  0
   -3.5906    0.4730   -6.7786 H   0  0  0  0  0  0  0  0  0  0  0  0
   -2.2719    2.5087   -7.2880 H   0  0  0  0  0  0  0  0  0  0  0  0
   -0.7347    3.4488   -5.5863 H   0  0  0  0  0  0  0  0  0  0  0  0
   -0.5136    2.3711   -3.3797 H   0  0  0  0  0  0  0  0  0  0  0  0
   -3.9217    0.0603   -2.1798 H   0  0  0  0  0  0  0  0  0  0  0  0
   -5.0104   -0.8900   -0.2207 H   0  0  0  0  0  0  0  0  0  0  0  0
   -4.8669   -2.0073    1.9676 H   0  0  0  0  0  0  0  0  0  0  0  0
   -2.6657   -2.5915    2.9315 H   0  0  0  0  0  0  0  0  0  0  0  0
   -0.6017   -2.0636    1.7339 H   0  0  0  0  0  0  0  0  0  0  0  0
    1.0809   -1.6804   -3.4836 Cu  0  0  0  0  0 15  0  0  0  0  0  0
  1  2  1  0
  2  3  2  0
  3  4  1  0
  4  5  2  0
  5  6  1  0
  6  7  2  0
  7  8  1  0
  8  9  2  0
  9 10  1  0
 10 11  2  0
 11 12  1  0
 12 13  2  0
  7 14  1  0
 14 15  2  0
 15 16  1  0
 16 17  2  0
 17 18  1  0
 18 19  2  0
 19 20  1  0
 19 21  1  0
 21 22  1  0
 22 23  2  0
 23 24  1  0
 24 25  2  0
 25 26  1  0
 26 27  2  0
 21 28  2  0
 28 29  1  0
 29 30  2  0
 30 31  1  0
 31 32  2  0
 32 33  1  0
 33 34  2  0
 17  2  1  0
 34 18  1  0
 16  5  1  0
 27 22  1  0
 34 29  1  0
 13  8  1  0
  3 35  1  0
  4 36  1  0
  6 37  1  0
  9 38  1  0
 10 39  1  0
 11 40  1  0
 12 41  1  0
 13 42  1  0
 14 43  1  0
 15 44  1  0
 23 45  1  0
 24 46  1  0
 25 47  1  0
 26 48  1  0
 27 49  1  0
 28 50  1  0
 30 51  1  0
 31 52  1  0
 32 53  1  0
 33 54  1  0
M  CHG  1  55   2
M  END
