
     RDKit          3D

 59 63  0  0  0  0  0  0  0  0999 V2000
    7.3749   -4.4284    1.3920 C   0  0  0  0  0  0  0  0  0  0  0  0
    7.4538   -3.0328    1.1206 O   0  0  0  0  0  0  0  0  0  0  0  0
    6.3495   -2.2205    0.8230 C   0  0  0  0  0  0  0  0  0  0  0  0
    6.5712   -0.8611    0.5763 C   0  0  0  0  0  0  0  0  0  0  0  0
    5.5043   -0.0097    0.2759 C   0  0  0  0  0  0  0  0  0  0  0  0
    4.1915   -0.5064    0.2232 C   0  0  0  0  0  0  0  0  0  0  0  0
    3.0620    0.3969   -0.1050 C   0  0  0  0  0  0  0  0  0  0  0  0
    3.1495    1.2316   -1.2276 C   0  0  0  0  0  0  0  0  0  0  0  0
    2.1016    2.0987   -1.5595 C   0  0  0  0  0  0  0  0  0  0  0  0
    2.2136    2.9371   -2.6807 C   0  0  0  0  0  0  0  0  0  0  0  0
    1.1798    3.8146   -3.0098 C   0  0  0  0  0  0  0  0  0  0  0  0
    0.0296    3.8678   -2.2231 C   0  0  0  0  0  0  0  0  0  0  0  0
   -0.0981    3.0393   -1.1060 C   0  0  0  0  0  0  0  0  0  0  0  0
    0.9291    2.1335   -0.7627 C   0  0  0  0  0  0  0  0  0  0  0  0
    0.8261    1.2728    0.3593 C   0  0  0  0  0  0  0  0  0  0  0  0
   -0.3914    1.2448    1.2144 C   0  0  0  0  0  0  0  0  0  0  0  0
   -0.3126    1.7650    2.5193 C   0  0  0  0  0  0  0  0  0  0  0  0
    0.8925    2.2621    3.0053 O   0  0  0  0  0  0  0  0  0  0  0  0
   -1.4388    1.7840    3.3430 C   0  0  0  0  0  0  0  0  0  0  0  0
   -2.6544    1.2773    2.8874 C   0  0  0  0  0  0  0  0  0  0  0  0
   -2.7549    0.7275    1.6019 C   0  0  0  0  0  0  0  0  0  0  0  0
   -3.9780    0.2010    1.1581 C   0  0  0  0  0  0  0  0  0  0  0  0
   -4.0913   -0.3726   -0.1191 C   0  0  0  0  0  0  0  0  0  0  0  0
   -5.3883   -0.9275   -0.5840 C   0  0  0  0  0  0  0  0  0  0  0  0
   -6.5932   -0.2498   -0.3171 C   0  0  0  0  0  0  0  0  0  0  0  0
   -7.8128   -0.7738   -0.7564 C   0  0  0  0  0  0  0  0  0  0  0  0
   -7.8444   -1.9772   -1.4645 C   0  0  0  0  0  0  0  0  0  0  0  0
   -6.6561   -2.6592   -1.7353 C   0  0  0  0  0  0  0  0  0  0  0  0
   -5.4335   -2.1394   -1.2992 C   0  0  0  0  0  0  0  0  0  0  0  0
   -2.9594   -0.4185   -0.9480 C   0  0  0  0  0  0  0  0  0  0  0  0
   -1.7385    0.1043   -0.5182 C   0  0  0  0  0  0  0  0  0  0  0  0
   -1.6176    0.6954    0.7551 C   0  0  0  0  0  0  0  0  0  0  0  0
    1.9047    0.4332    0.6952 C   0  0  0  0  0  0  0  0  0  0  0  0
    1.8291   -0.3490    1.8456 O   0  0  0  0  0  0  0  0  0  0  0  0
    3.9682   -1.8724    0.4635 C   0  0  0  0  0  0  0  0  0  0  0  0
    5.0361   -2.7234    0.7633 C   0  0  0  0  0  0  0  0  0  0  0  0
    6.9587   -4.9653    0.5136 H   0  0  0  0  0  0  0  0  0  0  0  0
    8.3940   -4.8163    1.5952 H   0  0  0  0  0  0  0  0  0  0  0  0
    6.7411   -4.6083    2.2859 H   0  0  0  0  0  0  0  0  0  0  0  0
    7.5767   -0.4621    0.6187 H   0  0  0  0  0  0  0  0  0  0  0  0
    5.7018    1.0400    0.0963 H   0  0  0  0  0  0  0  0  0  0  0  0
    4.0381    1.2005   -1.8486 H   0  0  0  0  0  0  0  0  0  0  0  0
    3.1024    2.9163   -3.3002 H   0  0  0  0  0  0  0  0  0  0  0  0
    1.2729    4.4593   -3.8742 H   0  0  0  0  0  0  0  0  0  0  0  0
   -0.7662    4.5556   -2.4784 H   0  0  0  0  0  0  0  0  0  0  0  0
   -1.0012    3.1185   -0.5156 H   0  0  0  0  0  0  0  0  0  0  0  0
   -1.3702    2.1930    4.3431 H   0  0  0  0  0  0  0  0  0  0  0  0
   -3.5149    1.3053    3.5455 H   0  0  0  0  0  0  0  0  0  0  0  0
   -4.8386    0.2187    1.8172 H   0  0  0  0  0  0  0  0  0  0  0  0
   -6.5905    0.6930    0.2154 H   0  0  0  0  0  0  0  0  0  0  0  0
   -8.7341   -0.2443   -0.5505 H   0  0  0  0  0  0  0  0  0  0  0  0
   -8.7896   -2.3812   -1.8033 H   0  0  0  0  0  0  0  0  0  0  0  0
   -6.6822   -3.5936   -2.2809 H   0  0  0  0  0  0  0  0  0  0  0  0
   -4.5263   -2.6933   -1.5056 H   0  0  0  0  0  0  0  0  0  0  0  0
   -3.0216   -0.8462   -1.9409 H   0  0  0  0  0  0  0  0  0  0  0  0
   -0.8937    0.0397   -1.1912 H   0  0  0  0  0  0  0  0  0  0  0  0
    2.9681   -2.2839    0.4043 H   0  0  0  0  0  0  0  0  0  0  0  0
    4.8303   -3.7698    0.9423 H   0  0  0  0  0  0  0  0  0  0  0  0
    2.0641    0.7526    3.4526 Cu  0  0  0  0  0 15  0  0  0  0  0  0
  1  2  1  0
  2  3  1  0
  3  4  2  0
  4  5  1  0
  5  6  2  0
  6  7  1  0
  7  8  2  0
  8  9  1  0
  9 10  2  0
 10 11  1  0
 11 12  2  0
 12 13  1  0
 13 14  2  0
 14 15  1  0
 15 16  1  0
 16 17  2  0
 17 18  1  0
 17 19  1  0
 19 20  2  0
 20 21  1  0
 21 22  2  0
 22 23  1  0
 23 24  1  0
 24 25  2  0
 25 26  1  0
 26 27  2  0
 27 28  1  0
 28 29  2  0
 23 30  2  0
 30 31  1  0
 31 32  2  0
 15 33  2  0
 33 34  1  0
  6 35  1  0
 35 36  2  0
 36  3  1  0
 33  7  1  0
 14  9  1  0
 32 16  1  0
 32 21  1  0
 29 24  1  0
  1 37  1  0
  1 38  1  0
  1 39  1  0
  4 40  1  0
  5 41  1  0
  8 42  1  0
 10 43  1  0
 11 44  1  0
 12 45  1  0
 13 46  1  0
 19 47  1  0
 20 48  1  0
 22 49  1  0
 25 50  1  0
 26 51  1  0
 27 52  1  0
 28 53  1  0
 29 54  1  0
 30 55  1  0
 31 56  1  0
 35 57  1  0
 36 58  1  0
M  CHG  1  59   2
M  END
