
     RDKit          3D

 59 63  0  0  0  0  0  0  0  0999 V2000
    6.9769    3.6732   -1.7772 C   0  0  0  0  0  0  0  0  0  0  0  0
    6.1565    3.2244   -2.8289 O   0  0  0  0  0  0  0  0  0  0  0  0
    5.2412    2.2540   -2.5824 C   0  0  0  0  0  0  0  0  0  0  0  0
    4.4515    1.8509   -3.6723 C   0  0  0  0  0  0  0  0  0  0  0  0
    3.4882    0.8627   -3.5109 C   0  0  0  0  0  0  0  0  0  0  0  0
    3.2696    0.2378   -2.2648 C   0  0  0  0  0  0  0  0  0  0  0  0
    2.2544   -0.8315   -2.1308 C   0  0  0  0  0  0  0  0  0  0  0  0
    2.0418   -1.7401   -3.1478 C   0  0  0  0  0  0  0  0  0  0  0  0
    1.0269   -2.7310   -3.0842 C   0  0  0  0  0  0  0  0  0  0  0  0
    0.8120   -3.6443   -4.1472 C   0  0  0  0  0  0  0  0  0  0  0  0
   -0.1878   -4.5960   -4.0782 C   0  0  0  0  0  0  0  0  0  0  0  0
   -1.0132   -4.6709   -2.9295 C   0  0  0  0  0  0  0  0  0  0  0  0
   -0.8207   -3.8070   -1.8711 C   0  0  0  0  0  0  0  0  0  0  0  0
    0.2030   -2.8123   -1.9092 C   0  0  0  0  0  0  0  0  0  0  0  0
    0.4465   -1.9267   -0.8226 C   0  0  0  0  0  0  0  0  0  0  0  0
   -0.3866   -2.0437    0.4101 C   0  0  0  0  0  0  0  0  0  0  0  0
   -1.3965   -1.0894    0.7118 C   0  0  0  0  0  0  0  0  0  0  0  0
   -1.5582    0.0000    0.0000 O   0  0  0  0  0  0  0  0  0  0  0  0
   -2.2175   -1.2834    1.8753 C   0  0  0  0  0  0  0  0  0  0  0  0
   -2.0291   -2.3485    2.7132 C   0  0  0  0  0  0  0  0  0  0  0  0
   -0.9842   -3.2909    2.4712 C   0  0  0  0  0  0  0  0  0  0  0  0
   -0.7568   -4.3807    3.3379 C   0  0  0  0  0  0  0  0  0  0  0  0
    0.2702   -5.2973    3.1234 C   0  0  0  0  0  0  0  0  0  0  0  0
    0.4964   -6.4310    4.0487 C   0  0  0  0  0  0  0  0  0  0  0  0
   -0.5812   -7.0698    4.6923 C   0  0  0  0  0  0  0  0  0  0  0  0
   -0.3671   -8.1344    5.5688 C   0  0  0  0  0  0  0  0  0  0  0  0
    0.9313   -8.5875    5.8236 C   0  0  0  0  0  0  0  0  0  0  0  0
    2.0123   -7.9651    5.1915 C   0  0  0  0  0  0  0  0  0  0  0  0
    1.7970   -6.9015    4.3138 C   0  0  0  0  0  0  0  0  0  0  0  0
    1.1013   -5.1091    1.9820 C   0  0  0  0  0  0  0  0  0  0  0  0
    0.8966   -4.0658    1.1070 C   0  0  0  0  0  0  0  0  0  0  0  0
   -0.1485   -3.1152    1.3141 C   0  0  0  0  0  0  0  0  0  0  0  0
    1.4364   -0.9190   -0.9343 C   0  0  0  0  0  0  0  0  0  0  0  0
    1.5582    0.0000    0.0000 O   0  0  0  0  0  0  0  0  0  0  0  0
    4.0627    0.6602   -1.1843 C   0  0  0  0  0  0  0  0  0  0  0  0
    5.0388    1.6486   -1.3328 C   0  0  0  0  0  0  0  0  0  0  0  0
    7.6037    2.8562   -1.3690 H   0  0  0  0  0  0  0  0  0  0  0  0
    7.6312    4.4500   -2.2021 H   0  0  0  0  0  0  0  0  0  0  0  0
    6.3822    4.1128   -0.9524 H   0  0  0  0  0  0  0  0  0  0  0  0
    4.6089    2.3392   -4.6371 H   0  0  0  0  0  0  0  0  0  0  0  0
    2.8694    0.5819   -4.3675 H   0  0  0  0  0  0  0  0  0  0  0  0
    2.6746   -1.7083   -4.0393 H   0  0  0  0  0  0  0  0  0  0  0  0
    1.4533   -3.5779   -5.0317 H   0  0  0  0  0  0  0  0  0  0  0  0
   -0.3441   -5.2911   -4.9083 H   0  0  0  0  0  0  0  0  0  0  0  0
   -1.8067   -5.4224   -2.8799 H   0  0  0  0  0  0  0  0  0  0  0  0
   -1.4562   -3.8755   -0.9867 H   0  0  0  0  0  0  0  0  0  0  0  0
   -2.9965   -0.5384    2.0567 H   0  0  0  0  0  0  0  0  0  0  0  0
   -2.6693   -2.4868    3.5902 H   0  0  0  0  0  0  0  0  0  0  0  0
   -1.3966   -4.4792    4.2193 H   0  0  0  0  0  0  0  0  0  0  0  0
   -1.6030   -6.7443    4.4804 H   0  0  0  0  0  0  0  0  0  0  0  0
   -1.2217   -8.6204    6.0493 H   0  0  0  0  0  0  0  0  0  0  0  0
    1.0996   -9.4226    6.5101 H   0  0  0  0  0  0  0  0  0  0  0  0
    3.0333   -8.3059    5.3886 H   0  0  0  0  0  0  0  0  0  0  0  0
    2.6536   -6.4092    3.8462 H   0  0  0  0  0  0  0  0  0  0  0  0
    1.8990   -5.8276    1.7781 H   0  0  0  0  0  0  0  0  0  0  0  0
    1.5374   -3.9593    0.2302 H   0  0  0  0  0  0  0  0  0  0  0  0
    3.9199    0.2014   -0.2057 H   0  0  0  0  0  0  0  0  0  0  0  0
    5.6372    1.9341   -0.4662 H   0  0  0  0  0  0  0  0  0  0  0  0
    0.0002    1.0544    0.0000 Cu  0  0  0  0  0 15  0  0  0  0  0  0
  1  2  1  0
  2  3  1  0
  3  4  2  0
  4  5  1  0
  5  6  2  0
  6  7  1  0
  7  8  2  0
  8  9  1  0
  9 10  2  0
 10 11  1  0
 11 12  2  0
 12 13  1  0
 13 14  2  0
 14 15  1  0
 15 16  1  0
 16 17  2  0
 17 18  1  0
 17 19  1  0
 19 20  2  0
 20 21  1  0
 21 22  2  0
 22 23  1  0
 23 24  1  0
 24 25  2  0
 25 26  1  0
 26 27  2  0
 27 28  1  0
 28 29  2  0
 23 30  2  0
 30 31  1  0
 31 32  2  0
 15 33  2  0
 33 34  1  0
  6 35  1  0
 35 36  2  0
 36  3  1  0
 33  7  1  0
 14  9  1  0
 32 16  1  0
 32 21  1  0
 29 24  1  0
  1 37  1  0
  1 38  1  0
  1 39  1  0
  4 40  1  0
  5 41  1  0
  8 42  1  0
 10 43  1  0
 11 44  1  0
 12 45  1  0
 13 46  1  0
 19 47  1  0
 20 48  1  0
 22 49  1  0
 25 50  1  0
 26 51  1  0
 27 52  1  0
 28 53  1  0
 29 54  1  0
 30 55  1  0
 31 56  1  0
 35 57  1  0
 36 58  1  0
M  CHG  1  59   2
M  END
$$$$
