
     RDKit          3D

 55 59  0  0  0  0  0  0  0  0999 V2000
   -3.4120   -0.0865    2.1195 C   0  0  0  0  0  0  0  0  0  0  0  0
   -2.3420   -1.1333    1.9521 C   0  0  0  0  0  0  0  0  0  0  0  0
   -1.4613   -1.0265    0.8178 C   0  0  0  0  0  0  0  0  0  0  0  0
   -1.5864    0.0000    0.0000 O   0  0  0  0  0  0  0  0  0  0  0  0
   -0.4331   -1.9988    0.6063 C   0  0  0  0  0  0  0  0  0  0  0  0
    0.4329   -1.9993   -0.6047 C   0  0  0  0  0  0  0  0  0  0  0  0
    1.4610   -1.0271   -0.8170 C   0  0  0  0  0  0  0  0  0  0  0  0
    1.5864    0.0000    0.0000 O   0  0  0  0  0  0  0  0  0  0  0  0
    2.3412   -1.1348   -1.9515 C   0  0  0  0  0  0  0  0  0  0  0  0
    3.4113   -0.0883   -2.1202 C   0  0  0  0  0  0  0  0  0  0  0  0
    2.2232   -2.1892   -2.8647 C   0  0  0  0  0  0  0  0  0  0  0  0
    3.1721   -2.3385   -4.0282 C   0  0  0  0  0  0  0  0  0  0  0  0
    1.1626   -3.0903   -2.6718 C   0  0  0  0  0  0  0  0  0  0  0  0
    0.8099   -4.1928   -3.4314 N   0  0  0  0  0  0  0  0  0  0  0  0
   -0.2992   -4.8161   -2.8780 C   0  0  0  0  0  0  0  0  0  0  0  0
   -0.9940   -5.9450   -3.3193 C   0  0  0  0  0  0  0  0  0  0  0  0
   -2.0956   -6.3633   -2.5693 C   0  0  0  0  0  0  0  0  0  0  0  0
   -2.4927   -5.6682   -1.4129 C   0  0  0  0  0  0  0  0  0  0  0  0
   -1.7943   -4.5403   -0.9769 C   0  0  0  0  0  0  0  0  0  0  0  0
   -0.6806   -4.1013   -1.7067 C   0  0  0  0  0  0  0  0  0  0  0  0
    0.2616   -2.9971   -1.5690 C   0  0  0  0  0  0  0  0  0  0  0  0
   -0.2621   -2.9957    1.5715 C   0  0  0  0  0  0  0  0  0  0  0  0
   -1.1635   -3.0881    2.6740 C   0  0  0  0  0  0  0  0  0  0  0  0
   -0.8112   -4.1901    3.4345 N   0  0  0  0  0  0  0  0  0  0  0  0
    0.2982   -4.8139    2.8819 C   0  0  0  0  0  0  0  0  0  0  0  0
    0.9926   -5.9427    3.3242 C   0  0  0  0  0  0  0  0  0  0  0  0
    2.0943   -6.3617    2.5748 C   0  0  0  0  0  0  0  0  0  0  0  0
    2.4917   -5.6676    1.4180 C   0  0  0  0  0  0  0  0  0  0  0  0
    1.7938   -4.5398    0.9809 C   0  0  0  0  0  0  0  0  0  0  0  0
    0.6801   -4.1000    1.7102 C   0  0  0  0  0  0  0  0  0  0  0  0
   -2.2243   -2.1872    2.8658 C   0  0  0  0  0  0  0  0  0  0  0  0
   -3.1736   -2.3368    4.0290 C   0  0  0  0  0  0  0  0  0  0  0  0
   -3.2169    0.7593    1.4446 H   0  0  0  0  0  0  0  0  0  0  0  0
   -4.4157   -0.4842    1.8707 H   0  0  0  0  0  0  0  0  0  0  0  0
   -3.4624    0.2849    3.1589 H   0  0  0  0  0  0  0  0  0  0  0  0
    3.2184    0.7567   -1.4438 H   0  0  0  0  0  0  0  0  0  0  0  0
    4.4155   -0.4869   -1.8750 H   0  0  0  0  0  0  0  0  0  0  0  0
    3.4590    0.2844   -3.1593 H   0  0  0  0  0  0  0  0  0  0  0  0
    3.1444   -3.3556   -4.4562 H   0  0  0  0  0  0  0  0  0  0  0  0
    2.9382   -1.6291   -4.8456 H   0  0  0  0  0  0  0  0  0  0  0  0
    4.2154   -2.1464   -3.7261 H   0  0  0  0  0  0  0  0  0  0  0  0
    1.2543   -4.4720   -4.2944 H   0  0  0  0  0  0  0  0  0  0  0  0
   -0.6865   -6.4830   -4.2205 H   0  0  0  0  0  0  0  0  0  0  0  0
   -2.6582   -7.2452   -2.8902 H   0  0  0  0  0  0  0  0  0  0  0  0
   -3.3618   -6.0162   -0.8475 H   0  0  0  0  0  0  0  0  0  0  0  0
   -2.1140   -4.0035   -0.0830 H   0  0  0  0  0  0  0  0  0  0  0  0
   -1.2555   -4.4683    4.2978 H   0  0  0  0  0  0  0  0  0  0  0  0
    0.6846   -6.4800    4.2257 H   0  0  0  0  0  0  0  0  0  0  0  0
    2.6565   -7.2436    2.8964 H   0  0  0  0  0  0  0  0  0  0  0  0
    3.3609   -6.0163    0.8530 H   0  0  0  0  0  0  0  0  0  0  0  0
    2.1137   -4.0039    0.0866 H   0  0  0  0  0  0  0  0  0  0  0  0
   -3.1505   -3.3559    4.4524 H   0  0  0  0  0  0  0  0  0  0  0  0
   -2.9359   -1.6322    4.8495 H   0  0  0  0  0  0  0  0  0  0  0  0
   -4.2161   -2.1385    3.7282 H   0  0  0  0  0  0  0  0  0  0  0  0
    0.0000    1.0166    0.0000 Cu  0  0  0  0  0 15  0  0  0  0  0  0
  1  2  1  0
  2  3  2  0
  3  4  1  0
  3  5  1  0
  5  6  1  0
  6  7  2  0
  7  8  1  0
  7  9  1  0
  9 10  1  0
  9 11  2  0
 11 12  1  0
 11 13  1  0
 13 14  1  0
 14 15  1  0
 15 16  2  0
 16 17  1  0
 17 18  2  0
 18 19  1  0
 19 20  2  0
 20 21  1  0
  5 22  2  0
 22 23  1  0
 23 24  1  0
 24 25  1  0
 25 26  2  0
 26 27  1  0
 27 28  2  0
 28 29  1  0
 29 30  2  0
 23 31  2  0
 31 32  1  0
 31  2  1  0
 21  6  1  0
 30 22  1  0
 21 13  2  0
 30 25  1  0
 20 15  1  0
  1 33  1  0
  1 34  1  0
  1 35  1  0
 10 36  1  0
 10 37  1  0
 10 38  1  0
 12 39  1  0
 12 40  1  0
 12 41  1  0
 14 42  1  0
 16 43  1  0
 17 44  1  0
 18 45  1  0
 19 46  1  0
 24 47  1  0
 26 48  1  0
 27 49  1  0
 28 50  1  0
 29 51  1  0
 32 52  1  0
 32 53  1  0
 32 54  1  0
M  CHG  1  55   2
M  END
$$$$
