
     RDKit          3D

 55 59  0  0  0  0  0  0  0  0999 V2000
    0.2455   -3.4574    3.5009 C   0  0  0  0  0  0  0  0  0  0  0  0
   -0.2689   -2.4353    2.5154 C   0  0  0  0  0  0  0  0  0  0  0  0
    0.5587   -1.3390    2.1467 C   0  0  0  0  0  0  0  0  0  0  0  0
    1.8355   -1.2130    2.6893 O   0  0  0  0  0  0  0  0  0  0  0  0
    0.1073   -0.3622    1.2356 C   0  0  0  0  0  0  0  0  0  0  0  0
    1.0063    0.7358    0.8276 C   0  0  0  0  0  0  0  0  0  0  0  0
    1.3688    1.7308    1.7586 C   0  0  0  0  0  0  0  0  0  0  0  0
    0.9111    1.6230    3.0698 O   0  0  0  0  0  0  0  0  0  0  0  0
    2.1907    2.8269    1.3769 C   0  0  0  0  0  0  0  0  0  0  0  0
    2.5654    3.8688    2.4038 C   0  0  0  0  0  0  0  0  0  0  0  0
    2.6205    2.9534    0.0243 C   0  0  0  0  0  0  0  0  0  0  0  0
    3.4535    4.1213   -0.4459 C   0  0  0  0  0  0  0  0  0  0  0  0
    2.3033    1.9101   -0.8605 C   0  0  0  0  0  0  0  0  0  0  0  0
    2.6861    1.7947   -2.1542 N   0  0  0  0  0  0  0  0  0  0  0  0
    2.1591    0.6300   -2.5784 C   0  0  0  0  0  0  0  0  0  0  0  0
    2.2967    0.0671   -3.8464 C   0  0  0  0  0  0  0  0  0  0  0  0
    1.6928   -1.1790   -4.0851 C   0  0  0  0  0  0  0  0  0  0  0  0
    0.9822   -1.8367   -3.0593 C   0  0  0  0  0  0  0  0  0  0  0  0
    0.8608   -1.2530   -1.7860 C   0  0  0  0  0  0  0  0  0  0  0  0
    1.4505   -0.0018   -1.5775 C   0  0  0  0  0  0  0  0  0  0  0  0
    1.5340    0.8282   -0.4677 C   0  0  0  0  0  0  0  0  0  0  0  0
   -1.2049   -0.4721    0.7553 C   0  0  0  0  0  0  0  0  0  0  0  0
   -2.0055   -1.5547    1.0773 C   0  0  0  0  0  0  0  0  0  0  0  0
   -3.2204   -1.4579    0.4874 N   0  0  0  0  0  0  0  0  0  0  0  0
   -3.1877   -0.3042   -0.2069 C   0  0  0  0  0  0  0  0  0  0  0  0
   -4.2218    0.2387   -0.9682 C   0  0  0  0  0  0  0  0  0  0  0  0
   -4.0007    1.4762   -1.5958 C   0  0  0  0  0  0  0  0  0  0  0  0
   -2.7686    2.1456   -1.4413 C   0  0  0  0  0  0  0  0  0  0  0  0
   -1.7414    1.5821   -0.6643 C   0  0  0  0  0  0  0  0  0  0  0  0
   -1.9752    0.3388   -0.0673 C   0  0  0  0  0  0  0  0  0  0  0  0
   -1.5573   -2.5809    1.9246 C   0  0  0  0  0  0  0  0  0  0  0  0
   -2.4573   -3.7504    2.2431 C   0  0  0  0  0  0  0  0  0  0  0  0
    1.1173   -3.0843    4.0766 H   0  0  0  0  0  0  0  0  0  0  0  0
    0.5492   -4.3768    2.9582 H   0  0  0  0  0  0  0  0  0  0  0  0
   -0.5417   -3.7075    4.2429 H   0  0  0  0  0  0  0  0  0  0  0  0
    2.4066    3.5116    3.4420 H   0  0  0  0  0  0  0  0  0  0  0  0
    1.9531    4.7814    2.2478 H   0  0  0  0  0  0  0  0  0  0  0  0
    3.6422    4.1253    2.3173 H   0  0  0  0  0  0  0  0  0  0  0  0
    3.2305    4.3691   -1.5037 H   0  0  0  0  0  0  0  0  0  0  0  0
    4.5306    3.8732   -0.3459 H   0  0  0  0  0  0  0  0  0  0  0  0
    3.2336    5.0406    0.1338 H   0  0  0  0  0  0  0  0  0  0  0  0
    3.2825    2.4444   -2.7128 H   0  0  0  0  0  0  0  0  0  0  0  0
    2.8553    0.5716   -4.6242 H   0  0  0  0  0  0  0  0  0  0  0  0
    1.7821   -1.6415   -5.0593 H   0  0  0  0  0  0  0  0  0  0  0  0
    0.5343   -2.8030   -3.2512 H   0  0  0  0  0  0  0  0  0  0  0  0
    0.3421   -1.7840   -1.0038 H   0  0  0  0  0  0  0  0  0  0  0  0
   -4.0302   -2.1124    0.5630 H   0  0  0  0  0  0  0  0  0  0  0  0
   -5.1693   -0.2745   -1.0705 H   0  0  0  0  0  0  0  0  0  0  0  0
   -4.7844    1.9233   -2.1933 H   0  0  0  0  0  0  0  0  0  0  0  0
   -2.6159    3.1053   -1.9176 H   0  0  0  0  0  0  0  0  0  0  0  0
   -0.8177    2.1221   -0.5299 H   0  0  0  0  0  0  0  0  0  0  0  0
   -3.0873   -4.0172    1.3702 H   0  0  0  0  0  0  0  0  0  0  0  0
   -3.1106   -3.4929    3.1025 H   0  0  0  0  0  0  0  0  0  0  0  0
   -1.8739   -4.6615    2.4860 H   0  0  0  0  0  0  0  0  0  0  0  0
    2.3489    0.4196    3.6501 Cu  0  0  0  0  0 15  0  0  0  0  0  0
  1  2  1  0
  2  3  2  0
  3  4  1  0
  3  5  1  0
  5  6  1  0
  6  7  2  0
  7  8  1  0
  7  9  1  0
  9 10  1  0
  9 11  2  0
 11 12  1  0
 11 13  1  0
 13 14  1  0
 14 15  1  0
 15 16  2  0
 16 17  1  0
 17 18  2  0
 18 19  1  0
 19 20  2  0
 20 21  1  0
  5 22  2  0
 22 23  1  0
 23 24  1  0
 24 25  1  0
 25 26  2  0
 26 27  1  0
 27 28  2  0
 28 29  1  0
 29 30  2  0
 23 31  2  0
 31 32  1  0
 31  2  1  0
 21  6  1  0
 30 22  1  0
 21 13  2  0
 30 25  1  0
 20 15  1  0
  1 33  1  0
  1 34  1  0
  1 35  1  0
 10 36  1  0
 10 37  1  0
 10 38  1  0
 12 39  1  0
 12 40  1  0
 12 41  1  0
 14 42  1  0
 16 43  1  0
 17 44  1  0
 18 45  1  0
 19 46  1  0
 24 47  1  0
 26 48  1  0
 27 49  1  0
 28 50  1  0
 29 51  1  0
 32 52  1  0
 32 53  1  0
 32 54  1  0
M  CHG  1  55   2
M  END
