
     RDKit          3D

 55 59  0  0  0  0  0  0  0  0999 V2000
   -1.5581   -0.0000    0.0000 O   0  0  0  0  0  0  0  0  0  0  0  0
   -1.4042   -1.0886    0.7109 C   0  0  0  0  0  0  0  0  0  0  0  0
   -2.2326   -1.2821    1.8698 C   0  0  0  0  0  0  0  0  0  0  0  0
   -2.0494   -2.3483    2.7067 C   0  0  0  0  0  0  0  0  0  0  0  0
   -0.9990   -3.2877    2.4724 C   0  0  0  0  0  0  0  0  0  0  0  0
   -0.7775   -4.3777    3.3391 C   0  0  0  0  0  0  0  0  0  0  0  0
    0.2427   -5.3027    3.1224 C   0  0  0  0  0  0  0  0  0  0  0  0
    0.4566   -6.4428    4.0423 C   0  0  0  0  0  0  0  0  0  0  0  0
    0.9055   -7.6875    3.5601 C   0  0  0  0  0  0  0  0  0  0  0  0
    1.1013   -8.7654    4.4248 C   0  0  0  0  0  0  0  0  0  0  0  0
    0.8569   -8.6239    5.7943 C   0  0  0  0  0  0  0  0  0  0  0  0
    0.4138   -7.3932    6.2898 C   0  0  0  0  0  0  0  0  0  0  0  0
    0.2160   -6.3168    5.4242 C   0  0  0  0  0  0  0  0  0  0  0  0
    1.0753   -5.1191    1.9816 C   0  0  0  0  0  0  0  0  0  0  0  0
    0.8812   -4.0703    1.1108 C   0  0  0  0  0  0  0  0  0  0  0  0
   -0.1606   -3.1159    1.3165 C   0  0  0  0  0  0  0  0  0  0  0  0
   -0.3933   -2.0450    0.4109 C   0  0  0  0  0  0  0  0  0  0  0  0
    0.4427   -1.9301   -0.8200 C   0  0  0  0  0  0  0  0  0  0  0  0
    1.4319   -0.9238   -0.9311 C   0  0  0  0  0  0  0  0  0  0  0  0
    1.5581   -0.0000    0.0000 O   0  0  0  0  0  0  0  0  0  0  0  0
    2.2529   -0.8464   -2.1245 C   0  0  0  0  0  0  0  0  0  0  0  0
    3.2697    0.2242   -2.2624 C   0  0  0  0  0  0  0  0  0  0  0  0
    3.4574    0.8631   -3.5028 C   0  0  0  0  0  0  0  0  0  0  0  0
    4.4258    1.8562   -3.6649 C   0  0  0  0  0  0  0  0  0  0  0  0
    5.2296    2.2345   -2.5858 C   0  0  0  0  0  0  0  0  0  0  0  0
    5.0522    1.6116   -1.3457 C   0  0  0  0  0  0  0  0  0  0  0  0
    4.0818    0.6219   -1.1824 C   0  0  0  0  0  0  0  0  0  0  0  0
    2.0485   -1.7608   -3.1375 C   0  0  0  0  0  0  0  0  0  0  0  0
    1.0365   -2.7541   -3.0719 C   0  0  0  0  0  0  0  0  0  0  0  0
    0.8294   -3.6758   -4.1295 C   0  0  0  0  0  0  0  0  0  0  0  0
   -0.1692   -4.6283   -4.0595 C   0  0  0  0  0  0  0  0  0  0  0  0
   -1.0007   -4.6943   -2.9148 C   0  0  0  0  0  0  0  0  0  0  0  0
   -0.8158   -3.8219   -1.8619 C   0  0  0  0  0  0  0  0  0  0  0  0
    0.2068   -2.8263   -1.9009 C   0  0  0  0  0  0  0  0  0  0  0  0
   -3.0122   -0.5368    2.0472 H   0  0  0  0  0  0  0  0  0  0  0  0
   -2.6952   -2.4886    3.5791 H   0  0  0  0  0  0  0  0  0  0  0  0
   -1.4522   -4.5040    4.1903 H   0  0  0  0  0  0  0  0  0  0  0  0
    1.0771   -7.8204    2.4888 H   0  0  0  0  0  0  0  0  0  0  0  0
    1.4410   -9.7255    4.0246 H   0  0  0  0  0  0  0  0  0  0  0  0
    1.0124   -9.4680    6.4727 H   0  0  0  0  0  0  0  0  0  0  0  0
    0.2294   -7.2676    7.3610 H   0  0  0  0  0  0  0  0  0  0  0  0
   -0.1035   -5.3528    5.8288 H   0  0  0  0  0  0  0  0  0  0  0  0
    1.9023   -5.8117    1.8074 H   0  0  0  0  0  0  0  0  0  0  0  0
    1.5396   -3.9508    0.2489 H   0  0  0  0  0  0  0  0  0  0  0  0
    2.8174    0.5913   -4.3469 H   0  0  0  0  0  0  0  0  0  0  0  0
    4.5466    2.3421   -4.6380 H   0  0  0  0  0  0  0  0  0  0  0  0
    5.9887    3.0130   -2.7091 H   0  0  0  0  0  0  0  0  0  0  0  0
    5.6786    1.8981   -0.4952 H   0  0  0  0  0  0  0  0  0  0  0  0
    3.9497    0.1439   -0.2115 H   0  0  0  0  0  0  0  0  0  0  0  0
    2.6856   -1.7305   -4.0261 H   0  0  0  0  0  0  0  0  0  0  0  0
    1.4762   -3.6147   -5.0105 H   0  0  0  0  0  0  0  0  0  0  0  0
   -0.3201   -5.3301   -4.8850 H   0  0  0  0  0  0  0  0  0  0  0  0
   -1.7943   -5.4457   -2.8638 H   0  0  0  0  0  0  0  0  0  0  0  0
   -1.4578   -3.8850   -0.9818 H   0  0  0  0  0  0  0  0  0  0  0  0
    0.0011    1.0540   -0.0000 Cu  0  0  0  0  0 15  0  0  0  0  0  0
  1  2  1  0
  2  3  2  0
  3  4  1  0
  4  5  2  0
  5  6  1  0
  6  7  2  0
  7  8  1  0
  8  9  2  0
  9 10  1  0
 10 11  2  0
 11 12  1  0
 12 13  2  0
  7 14  1  0
 14 15  2  0
 15 16  1  0
 16 17  2  0
 17 18  1  0
 18 19  2  0
 19 20  1  0
 19 21  1  0
 21 22  1  0
 22 23  2  0
 23 24  1  0
 24 25  2  0
 25 26  1  0
 26 27  2  0
 21 28  2  0
 28 29  1  0
 29 30  2  0
 30 31  1  0
 31 32  2  0
 32 33  1  0
 33 34  2  0
 17  2  1  0
 34 18  1  0
 16  5  1  0
 27 22  1  0
 34 29  1  0
 13  8  1  0
  3 35  1  0
  4 36  1  0
  6 37  1  0
  9 38  1  0
 10 39  1  0
 11 40  1  0
 12 41  1  0
 13 42  1  0
 14 43  1  0
 15 44  1  0
 23 45  1  0
 24 46  1  0
 25 47  1  0
 26 48  1  0
 27 49  1  0
 28 50  1  0
 30 51  1  0
 31 52  1  0
 32 53  1  0
 33 54  1  0
M  CHG  1  55   2
M  END
$$$$
