
     RDKit          3D

 61 65  0  0  0  0  0  0  0  0999 V2000
   -2.0805    3.5486    3.0833 C   0  0  0  0  0  0  0  0  0  0  0  0
   -1.8963    2.3822    2.1390 C   0  0  0  0  0  0  0  0  0  0  0  0
   -0.6601    1.6883    2.1437 C   0  0  0  0  0  0  0  0  0  0  0  0
    0.3434    2.0528    3.0390 O   0  0  0  0  0  0  0  0  0  0  0  0
   -0.4252    0.6203    1.2621 C   0  0  0  0  0  0  0  0  0  0  0  0
    0.9008   -0.0307    1.2474 C   0  0  0  0  0  0  0  0  0  0  0  0
    1.2869   -0.8348    2.3328 C   0  0  0  0  0  0  0  0  0  0  0  0
    0.4404   -0.9269    3.4357 O   0  0  0  0  0  0  0  0  0  0  0  0
    2.5122   -1.5468    2.3142 C   0  0  0  0  0  0  0  0  0  0  0  0
    2.8782   -2.3998    3.5074 C   0  0  0  0  0  0  0  0  0  0  0  0
    3.3510   -1.4950    1.1604 C   0  0  0  0  0  0  0  0  0  0  0  0
    4.5338   -2.4276    1.0384 C   0  0  0  0  0  0  0  0  0  0  0  0
    3.0124   -0.5657    0.1409 C   0  0  0  0  0  0  0  0  0  0  0  0
    1.8116    0.1339    0.1930 C   0  0  0  0  0  0  0  0  0  0  0  0
    1.7625    0.9190   -0.9495 C   0  0  0  0  0  0  0  0  0  0  0  0
    0.8249    1.8503   -1.4131 C   0  0  0  0  0  0  0  0  0  0  0  0
    1.0722    2.4898   -2.6374 C   0  0  0  0  0  0  0  0  0  0  0  0
    2.2410    2.2055   -3.3675 C   0  0  0  0  0  0  0  0  0  0  0  0
    3.1838    1.2903   -2.8733 C   0  0  0  0  0  0  0  0  0  0  0  0
    2.9253    0.6631   -1.6455 C   0  0  0  0  0  0  0  0  0  0  0  0
    3.7149   -0.2171   -0.9805 N   0  0  0  0  0  0  0  0  0  0  0  0
    5.0724   -0.6061   -1.3774 C   0  0  0  0  0  0  0  0  0  0  0  0
   -1.4659    0.2281    0.4077 C   0  0  0  0  0  0  0  0  0  0  0  0
   -1.5486   -0.7893   -0.5314 C   0  0  0  0  0  0  0  0  0  0  0  0
   -0.6744   -1.8285   -0.8731 C   0  0  0  0  0  0  0  0  0  0  0  0
   -1.0671   -2.7230   -1.8806 C   0  0  0  0  0  0  0  0  0  0  0  0
   -2.3165   -2.5819   -2.5129 C   0  0  0  0  0  0  0  0  0  0  0  0
   -3.1894   -1.5471   -2.1412 C   0  0  0  0  0  0  0  0  0  0  0  0
   -2.7786   -0.6554   -1.1397 C   0  0  0  0  0  0  0  0  0  0  0  0
   -3.4706    0.3927   -0.6275 N   0  0  0  0  0  0  0  0  0  0  0  0
   -4.7604    0.8807   -1.1272 C   0  0  0  0  0  0  0  0  0  0  0  0
   -2.6785    0.9067    0.3629 C   0  0  0  0  0  0  0  0  0  0  0  0
   -2.9555    1.9527    1.2831 C   0  0  0  0  0  0  0  0  0  0  0  0
   -4.3313    2.5668    1.4072 C   0  0  0  0  0  0  0  0  0  0  0  0
   -2.6240    4.3749    2.5787 H   0  0  0  0  0  0  0  0  0  0  0  0
   -1.1111    3.9733    3.4166 H   0  0  0  0  0  0  0  0  0  0  0  0
   -2.6479    3.2185    3.9785 H   0  0  0  0  0  0  0  0  0  0  0  0
    3.9664   -2.3314    3.7168 H   0  0  0  0  0  0  0  0  0  0  0  0
    2.3626   -2.0647    4.4311 H   0  0  0  0  0  0  0  0  0  0  0  0
    2.6010   -3.4564    3.3100 H   0  0  0  0  0  0  0  0  0  0  0  0
    4.6468   -2.7885   -0.0011 H   0  0  0  0  0  0  0  0  0  0  0  0
    5.4568   -1.9217    1.3889 H   0  0  0  0  0  0  0  0  0  0  0  0
    4.3946   -3.3524    1.6331 H   0  0  0  0  0  0  0  0  0  0  0  0
   -0.0618    2.1062   -0.8573 H   0  0  0  0  0  0  0  0  0  0  0  0
    0.3610    3.2099   -3.0207 H   0  0  0  0  0  0  0  0  0  0  0  0
    2.4180    2.7017   -4.3129 H   0  0  0  0  0  0  0  0  0  0  0  0
    4.0741    1.0817   -3.4489 H   0  0  0  0  0  0  0  0  0  0  0  0
    5.7413   -0.6424   -0.4965 H   0  0  0  0  0  0  0  0  0  0  0  0
    5.0493   -1.5816   -1.9052 H   0  0  0  0  0  0  0  0  0  0  0  0
    5.5245    0.1465   -2.0528 H   0  0  0  0  0  0  0  0  0  0  0  0
    0.2686   -1.9800   -0.3740 H   0  0  0  0  0  0  0  0  0  0  0  0
   -0.4100   -3.5349   -2.1642 H   0  0  0  0  0  0  0  0  0  0  0  0
   -2.6120   -3.2842   -3.2815 H   0  0  0  0  0  0  0  0  0  0  0  0
   -4.1571   -1.4708   -2.6160 H   0  0  0  0  0  0  0  0  0  0  0  0
   -4.9190    0.5805   -2.1819 H   0  0  0  0  0  0  0  0  0  0  0  0
   -4.7832    1.9872   -1.1346 H   0  0  0  0  0  0  0  0  0  0  0  0
   -5.5873    0.4656   -0.5150 H   0  0  0  0  0  0  0  0  0  0  0  0
   -5.1186    1.7984    1.2923 H   0  0  0  0  0  0  0  0  0  0  0  0
   -4.5110    2.9883    2.4160 H   0  0  0  0  0  0  0  0  0  0  0  0
   -4.4544    3.3796    0.6623 H   0  0  0  0  0  0  0  0  0  0  0  0
    0.5250    0.7328    4.4805 Cu  0  0  0  0  0 15  0  0  0  0  0  0
  1  2  1  0
  2  3  2  0
  3  4  1  0
  3  5  1  0
  5  6  1  0
  6  7  2  0
  7  8  1  0
  7  9  1  0
  9 10  1  0
  9 11  2  0
 11 12  1  0
 11 13  1  0
 13 14  2  0
 14 15  1  0
 15 16  2  0
 16 17  1  0
 17 18  2  0
 18 19  1  0
 19 20  2  0
 20 21  1  0
 21 22  1  0
  5 23  2  0
 23 24  1  0
 24 25  2  0
 25 26  1  0
 26 27  2  0
 27 28  1  0
 28 29  2  0
 29 30  1  0
 30 31  1  0
 30 32  1  0
 32 33  2  0
 33 34  1  0
 33  2  1  0
 14  6  1  0
 20 15  1  0
 32 23  1  0
 21 13  1  0
 29 24  1  0
  1 35  1  0
  1 36  1  0
  1 37  1  0
 10 38  1  0
 10 39  1  0
 10 40  1  0
 12 41  1  0
 12 42  1  0
 12 43  1  0
 16 44  1  0
 17 45  1  0
 18 46  1  0
 19 47  1  0
 22 48  1  0
 22 49  1  0
 22 50  1  0
 25 51  1  0
 26 52  1  0
 27 53  1  0
 28 54  1  0
 31 55  1  0
 31 56  1  0
 31 57  1  0
 34 58  1  0
 34 59  1  0
 34 60  1  0
M  CHG  1  61   2
M  END
