
     RDKit          3D

 59 63  0  0  0  0  0  0  0  0999 V2000
   -5.7941    5.0187    0.5020 C   0  0  0  0  0  0  0  0  0  0  0  0
   -4.4272    4.6400    0.3779 O   0  0  0  0  0  0  0  0  0  0  0  0
   -3.9134    3.3919    0.7606 C   0  0  0  0  0  0  0  0  0  0  0  0
   -2.5468    3.1526    0.5827 C   0  0  0  0  0  0  0  0  0  0  0  0
   -1.9861    1.9258    0.9473 C   0  0  0  0  0  0  0  0  0  0  0  0
   -2.7881    0.9109    1.4997 C   0  0  0  0  0  0  0  0  0  0  0  0
   -2.1917   -0.3928    1.8875 C   0  0  0  0  0  0  0  0  0  0  0  0
   -2.5706   -1.0231    3.0829 C   0  0  0  0  0  0  0  0  0  0  0  0
   -1.9989   -2.2398    3.4557 C   0  0  0  0  0  0  0  0  0  0  0  0
   -1.0268   -2.8448    2.6468 C   0  0  0  0  0  0  0  0  0  0  0  0
   -0.4591   -4.0677    3.0284 C   0  0  0  0  0  0  0  0  0  0  0  0
    0.5031   -4.6773    2.2255 C   0  0  0  0  0  0  0  0  0  0  0  0
    0.9236   -4.0699    1.0415 C   0  0  0  0  0  0  0  0  0  0  0  0
    1.8826   -4.7040    0.2580 O   0  0  0  0  0  0  0  0  0  0  0  0
    0.3851   -2.8318    0.6436 C   0  0  0  0  0  0  0  0  0  0  0  0
    0.8845   -2.2024   -0.6099 C   0  0  0  0  0  0  0  0  0  0  0  0
    0.5866   -2.8172   -1.8405 C   0  0  0  0  0  0  0  0  0  0  0  0
   -0.1198   -4.0153   -1.8754 O   0  0  0  0  0  0  0  0  0  0  0  0
    0.9932   -2.2329   -3.0407 C   0  0  0  0  0  0  0  0  0  0  0  0
    1.7009   -1.0327   -3.0371 C   0  0  0  0  0  0  0  0  0  0  0  0
    2.0303   -0.4089   -1.8261 C   0  0  0  0  0  0  0  0  0  0  0  0
    2.7464    0.7983   -1.8314 C   0  0  0  0  0  0  0  0  0  0  0  0
    3.0903    1.4339   -0.6270 C   0  0  0  0  0  0  0  0  0  0  0  0
    3.8359    2.7181   -0.6373 C   0  0  0  0  0  0  0  0  0  0  0  0
    4.8984    2.9225   -1.5380 C   0  0  0  0  0  0  0  0  0  0  0  0
    5.5975    4.1335   -1.5452 C   0  0  0  0  0  0  0  0  0  0  0  0
    5.2447    5.1519   -0.6569 C   0  0  0  0  0  0  0  0  0  0  0  0
    4.1921    4.9614    0.2411 C   0  0  0  0  0  0  0  0  0  0  0  0
    3.4903    3.7521    0.2534 C   0  0  0  0  0  0  0  0  0  0  0  0
    2.7210    0.8366    0.5881 C   0  0  0  0  0  0  0  0  0  0  0  0
    2.0119   -0.3653    0.6056 C   0  0  0  0  0  0  0  0  0  0  0  0
    1.6377   -0.9977   -0.5969 C   0  0  0  0  0  0  0  0  0  0  0  0
   -0.6193   -2.2198    1.4408 C   0  0  0  0  0  0  0  0  0  0  0  0
   -1.2305   -1.0050    1.0656 C   0  0  0  0  0  0  0  0  0  0  0  0
   -4.1612    1.1524    1.6798 C   0  0  0  0  0  0  0  0  0  0  0  0
   -4.7205    2.3803    1.3135 C   0  0  0  0  0  0  0  0  0  0  0  0
   -6.4343    4.3412   -0.1015 H   0  0  0  0  0  0  0  0  0  0  0  0
   -6.1035    4.9884    1.5681 H   0  0  0  0  0  0  0  0  0  0  0  0
   -5.9189    6.0545    0.1252 H   0  0  0  0  0  0  0  0  0  0  0  0
   -1.9143    3.9242    0.1621 H   0  0  0  0  0  0  0  0  0  0  0  0
   -0.9215    1.7773    0.8129 H   0  0  0  0  0  0  0  0  0  0  0  0
   -3.2997   -0.5658    3.7401 H   0  0  0  0  0  0  0  0  0  0  0  0
   -2.3120   -2.7050    4.3830 H   0  0  0  0  0  0  0  0  0  0  0  0
   -0.7649   -4.5566    3.9459 H   0  0  0  0  0  0  0  0  0  0  0  0
    0.9275   -5.6269    2.5261 H   0  0  0  0  0  0  0  0  0  0  0  0
    0.7537   -2.7102   -3.9825 H   0  0  0  0  0  0  0  0  0  0  0  0
    1.9979   -0.5951   -3.9830 H   0  0  0  0  0  0  0  0  0  0  0  0
    3.0191    1.2542   -2.7764 H   0  0  0  0  0  0  0  0  0  0  0  0
    5.1995    2.1406   -2.2238 H   0  0  0  0  0  0  0  0  0  0  0  0
    6.4158    4.2810   -2.2381 H   0  0  0  0  0  0  0  0  0  0  0  0
    5.7868    6.0886   -0.6645 H   0  0  0  0  0  0  0  0  0  0  0  0
    3.9172    5.7527    0.9265 H   0  0  0  0  0  0  0  0  0  0  0  0
    2.6669    3.6319    0.9464 H   0  0  0  0  0  0  0  0  0  0  0  0
    2.9969    1.2923    1.5309 H   0  0  0  0  0  0  0  0  0  0  0  0
    1.7635   -0.7931    1.5677 H   0  0  0  0  0  0  0  0  0  0  0  0
   -0.9748   -0.5315    0.1272 H   0  0  0  0  0  0  0  0  0  0  0  0
   -4.8067    0.3848    2.0881 H   0  0  0  0  0  0  0  0  0  0  0  0
   -5.7811    2.5310    1.4615 H   0  0  0  0  0  0  0  0  0  0  0  0
    0.8893   -5.5576   -1.2028 Cu  0  0  0  0  0 15  0  0  0  0  0  0
  1  2  1  0
  2  3  1  0
  3  4  2  0
  4  5  1  0
  5  6  2  0
  6  7  1  0
  7  8  2  0
  8  9  1  0
  9 10  2  0
 10 11  1  0
 11 12  2  0
 12 13  1  0
 13 14  1  0
 13 15  2  0
 15 16  1  0
 16 17  2  0
 17 18  1  0
 17 19  1  0
 19 20  2  0
 20 21  1  0
 21 22  2  0
 22 23  1  0
 23 24  1  0
 24 25  2  0
 25 26  1  0
 26 27  2  0
 27 28  1  0
 28 29  2  0
 23 30  2  0
 30 31  1  0
 31 32  2  0
 15 33  1  0
 33 34  2  0
  6 35  1  0
 35 36  2  0
 36  3  1  0
 34  7  1  0
 33 10  1  0
 32 16  1  0
 32 21  1  0
 29 24  1  0
  1 37  1  0
  1 38  1  0
  1 39  1  0
  4 40  1  0
  5 41  1  0
  8 42  1  0
  9 43  1  0
 11 44  1  0
 12 45  1  0
 19 46  1  0
 20 47  1  0
 22 48  1  0
 25 49  1  0
 26 50  1  0
 27 51  1  0
 28 52  1  0
 29 53  1  0
 30 54  1  0
 31 55  1  0
 34 56  1  0
 35 57  1  0
 36 58  1  0
M  CHG  1  59   2
M  END
