
     RDKit          3D

 61 65  0  0  0  0  0  0  0  0999 V2000
   -3.3766   -0.0895    2.1369 C   0  0  0  0  0  0  0  0  0  0  0  0
   -2.3153   -1.1476    1.9600 C   0  0  0  0  0  0  0  0  0  0  0  0
   -1.4625   -1.0320    0.8054 C   0  0  0  0  0  0  0  0  0  0  0  0
   -1.5956    0.0000   -0.0000 O   0  0  0  0  0  0  0  0  0  0  0  0
   -0.4325   -1.9945    0.5779 C   0  0  0  0  0  0  0  0  0  0  0  0
    0.4245   -1.9769   -0.6389 C   0  0  0  0  0  0  0  0  0  0  0  0
    1.4662   -1.0190   -0.8261 C   0  0  0  0  0  0  0  0  0  0  0  0
    1.5956    0.0000   -0.0000 O   0  0  0  0  0  0  0  0  0  0  0  0
    2.3677   -1.1503   -1.9384 C   0  0  0  0  0  0  0  0  0  0  0  0
    3.4738   -0.1309   -2.0502 C   0  0  0  0  0  0  0  0  0  0  0  0
    2.2497   -2.1979   -2.8649 C   0  0  0  0  0  0  0  0  0  0  0  0
    3.3165   -2.3834   -3.9229 C   0  0  0  0  0  0  0  0  0  0  0  0
    1.1290   -3.0501   -2.7397 C   0  0  0  0  0  0  0  0  0  0  0  0
    0.2337   -2.9433   -1.6295 C   0  0  0  0  0  0  0  0  0  0  0  0
   -0.7479   -4.0076   -1.7713 C   0  0  0  0  0  0  0  0  0  0  0  0
   -1.8670   -4.4133   -1.0313 C   0  0  0  0  0  0  0  0  0  0  0  0
   -2.6139   -5.5083   -1.4705 C   0  0  0  0  0  0  0  0  0  0  0  0
   -2.2561   -6.2003   -2.6400 C   0  0  0  0  0  0  0  0  0  0  0  0
   -1.1510   -5.8104   -3.4006 C   0  0  0  0  0  0  0  0  0  0  0  0
   -0.4086   -4.7090   -2.9598 C   0  0  0  0  0  0  0  0  0  0  0  0
    0.7082   -4.1136   -3.5427 N   0  0  0  0  0  0  0  0  0  0  0  0
    1.1863   -4.4800   -4.8572 C   0  0  0  0  0  0  0  0  0  0  0  0
   -0.2501   -2.9987    1.5297 C   0  0  0  0  0  0  0  0  0  0  0  0
    0.7105   -4.0876    1.6173 C   0  0  0  0  0  0  0  0  0  0  0  0
    1.8307   -4.4678    0.8658 C   0  0  0  0  0  0  0  0  0  0  0  0
    2.5513   -5.6019    1.2461 C   0  0  0  0  0  0  0  0  0  0  0  0
    2.1676   -6.3553    2.3683 C   0  0  0  0  0  0  0  0  0  0  0  0
    1.0603   -5.9916    3.1390 C   0  0  0  0  0  0  0  0  0  0  0  0
    0.3395   -4.8564    2.7525 C   0  0  0  0  0  0  0  0  0  0  0  0
   -0.7882   -4.2873    3.3446 N   0  0  0  0  0  0  0  0  0  0  0  0
   -1.5074   -4.9317    4.4212 C   0  0  0  0  0  0  0  0  0  0  0  0
   -1.1398   -3.1337    2.6422 C   0  0  0  0  0  0  0  0  0  0  0  0
   -2.1642   -2.1882    2.8876 C   0  0  0  0  0  0  0  0  0  0  0  0
   -3.0480   -2.2330    4.1157 C   0  0  0  0  0  0  0  0  0  0  0  0
   -4.3798   -0.5295    2.2808 H   0  0  0  0  0  0  0  0  0  0  0  0
   -3.4036    0.5584    1.2500 H   0  0  0  0  0  0  0  0  0  0  0  0
   -3.1752    0.5499    3.0188 H   0  0  0  0  0  0  0  0  0  0  0  0
    3.6001    0.2302   -3.0860 H   0  0  0  0  0  0  0  0  0  0  0  0
    3.2504    0.7248   -1.3970 H   0  0  0  0  0  0  0  0  0  0  0  0
    4.4503   -0.5423   -1.7269 H   0  0  0  0  0  0  0  0  0  0  0  0
    3.4562   -3.4421   -4.1861 H   0  0  0  0  0  0  0  0  0  0  0  0
    3.0917   -1.8323   -4.8569 H   0  0  0  0  0  0  0  0  0  0  0  0
    4.2894   -2.0149   -3.5635 H   0  0  0  0  0  0  0  0  0  0  0  0
   -2.1549   -3.8763   -0.1272 H   0  0  0  0  0  0  0  0  0  0  0  0
   -3.4868   -5.8324   -0.8965 H   0  0  0  0  0  0  0  0  0  0  0  0
   -2.8490   -7.0615   -2.9628 H   0  0  0  0  0  0  0  0  0  0  0  0
   -0.8778   -6.3636   -4.3020 H   0  0  0  0  0  0  0  0  0  0  0  0
    1.5244   -3.5896   -5.4050 H   0  0  0  0  0  0  0  0  0  0  0  0
    2.0138   -5.2138   -4.8206 H   0  0  0  0  0  0  0  0  0  0  0  0
    0.3566   -4.9258   -5.4282 H   0  0  0  0  0  0  0  0  0  0  0  0
    2.1397   -3.8820   -0.0002 H   0  0  0  0  0  0  0  0  0  0  0  0
    3.4274   -5.9049    0.6657 H   0  0  0  0  0  0  0  0  0  0  0  0
    2.7486   -7.2379    2.6527 H   0  0  0  0  0  0  0  0  0  0  0  0
    0.7859   -6.5748    4.0208 H   0  0  0  0  0  0  0  0  0  0  0  0
   -1.2974   -6.0121    4.3930 H   0  0  0  0  0  0  0  0  0  0  0  0
   -2.5908   -4.8018    4.2934 H   0  0  0  0  0  0  0  0  0  0  0  0
   -1.2150   -4.5484    5.4171 H   0  0  0  0  0  0  0  0  0  0  0  0
   -2.5141   -2.6222    4.9951 H   0  0  0  0  0  0  0  0  0  0  0  0
   -3.4032   -1.2262    4.3810 H   0  0  0  0  0  0  0  0  0  0  0  0
   -3.9491   -2.8587    3.9657 H   0  0  0  0  0  0  0  0  0  0  0  0
    0.0003    1.0105    0.0000 Cu  0  0  0  0  0 15  0  0  0  0  0  0
  1  2  1  0
  2  3  2  0
  3  4  1  0
  3  5  1  0
  5  6  1  0
  6  7  2  0
  7  8  1  0
  7  9  1  0
  9 10  1  0
  9 11  2  0
 11 12  1  0
 11 13  1  0
 13 14  2  0
 14 15  1  0
 15 16  2  0
 16 17  1  0
 17 18  2  0
 18 19  1  0
 19 20  2  0
 20 21  1  0
 21 22  1  0
  5 23  2  0
 23 24  1  0
 24 25  2  0
 25 26  1  0
 26 27  2  0
 27 28  1  0
 28 29  2  0
 29 30  1  0
 30 31  1  0
 30 32  1  0
 32 33  2  0
 33 34  1  0
 33  2  1  0
 14  6  1  0
 20 15  1  0
 32 23  1  0
 21 13  1  0
 29 24  1  0
  1 35  1  0
  1 36  1  0
  1 37  1  0
 10 38  1  0
 10 39  1  0
 10 40  1  0
 12 41  1  0
 12 42  1  0
 12 43  1  0
 16 44  1  0
 17 45  1  0
 18 46  1  0
 19 47  1  0
 22 48  1  0
 22 49  1  0
 22 50  1  0
 25 51  1  0
 26 52  1  0
 27 53  1  0
 28 54  1  0
 31 55  1  0
 31 56  1  0
 31 57  1  0
 34 58  1  0
 34 59  1  0
 34 60  1  0
M  CHG  1  61   2
M  END
$$$$
