
     RDKit          3D

 59 63  0  0  0  0  0  0  0  0999 V2000
   -1.0854  -10.2057   -7.4389 C   0  0  0  0  0  0  0  0  0  0  0  0
    0.1173   -9.7386   -6.8747 O   0  0  0  0  0  0  0  0  0  0  0  0
    0.0818   -8.6806   -6.0294 C   0  0  0  0  0  0  0  0  0  0  0  0
    1.3148   -8.2708   -5.4918 C   0  0  0  0  0  0  0  0  0  0  0  0
    1.3767   -7.1950   -4.6166 C   0  0  0  0  0  0  0  0  0  0  0  0
    0.2180   -6.4834   -4.2378 C   0  0  0  0  0  0  0  0  0  0  0  0
    0.2908   -5.3358   -3.3080 C   0  0  0  0  0  0  0  0  0  0  0  0
   -0.7757   -5.0415   -2.4166 C   0  0  0  0  0  0  0  0  0  0  0  0
   -0.7163   -3.9753   -1.5431 C   0  0  0  0  0  0  0  0  0  0  0  0
    0.4189   -3.1199   -1.4827 C   0  0  0  0  0  0  0  0  0  0  0  0
    0.4929   -2.0109   -0.5643 C   0  0  0  0  0  0  0  0  0  0  0  0
   -0.4948   -2.0144    0.5558 C   0  0  0  0  0  0  0  0  0  0  0  0
   -1.6047   -1.1036    0.6799 C   0  0  0  0  0  0  0  0  0  0  0  0
   -1.7376    0.0000    0.0000 O   0  0  0  0  0  0  0  0  0  0  0  0
   -2.6702   -1.4347    1.5957 C   0  0  0  0  0  0  0  0  0  0  0  0
   -2.6185   -2.5322    2.4026 C   0  0  0  0  0  0  0  0  0  0  0  0
   -1.4833   -3.4039    2.3862 C   0  0  0  0  0  0  0  0  0  0  0  0
   -1.3986   -4.5065    3.2615 C   0  0  0  0  0  0  0  0  0  0  0  0
   -0.2930   -5.3542    3.2803 C   0  0  0  0  0  0  0  0  0  0  0  0
   -0.2198   -6.5086    4.2058 C   0  0  0  0  0  0  0  0  0  0  0  0
   -1.3738   -7.2413    4.5430 C   0  0  0  0  0  0  0  0  0  0  0  0
   -1.3072   -8.3268    5.4177 C   0  0  0  0  0  0  0  0  0  0  0  0
   -0.0830   -8.7072    5.9768 C   0  0  0  0  0  0  0  0  0  0  0  0
    1.0727   -7.9907    5.6510 C   0  0  0  0  0  0  0  0  0  0  0  0
    1.0049   -6.9057    4.7754 C   0  0  0  0  0  0  0  0  0  0  0  0
    0.7718   -5.0605    2.3876 C   0  0  0  0  0  0  0  0  0  0  0  0
    0.7116   -3.9907    1.5181 C   0  0  0  0  0  0  0  0  0  0  0  0
   -0.4208   -3.1312    1.4668 C   0  0  0  0  0  0  0  0  0  0  0  0
    1.6070   -1.1009   -0.6818 C   0  0  0  0  0  0  0  0  0  0  0  0
    1.7376    0.0000    0.0000 O   0  0  0  0  0  0  0  0  0  0  0  0
    2.6764   -1.4319   -1.5936 C   0  0  0  0  0  0  0  0  0  0  0  0
    2.6240   -2.5252   -2.4054 C   0  0  0  0  0  0  0  0  0  0  0  0
    1.4844   -3.3927   -2.3987 C   0  0  0  0  0  0  0  0  0  0  0  0
    1.3995   -4.4894   -3.2796 C   0  0  0  0  0  0  0  0  0  0  0  0
   -1.0041   -6.9095   -4.7826 C   0  0  0  0  0  0  0  0  0  0  0  0
   -1.0834   -7.9884   -5.6670 C   0  0  0  0  0  0  0  0  0  0  0  0
   -1.7981  -10.5425   -6.6608 H   0  0  0  0  0  0  0  0  0  0  0  0
   -1.5737   -9.4301   -8.0608 H   0  0  0  0  0  0  0  0  0  0  0  0
   -0.8178  -11.0620   -8.0768 H   0  0  0  0  0  0  0  0  0  0  0  0
    2.2127   -8.8266   -5.7725 H   0  0  0  0  0  0  0  0  0  0  0  0
    2.3442   -6.9143   -4.1921 H   0  0  0  0  0  0  0  0  0  0  0  0
   -1.6593   -5.6845   -2.4077 H   0  0  0  0  0  0  0  0  0  0  0  0
   -1.5635   -3.7779   -0.8846 H   0  0  0  0  0  0  0  0  0  0  0  0
   -3.5138   -0.7405    1.6155 H   0  0  0  0  0  0  0  0  0  0  0  0
   -3.4384   -2.7512    3.0942 H   0  0  0  0  0  0  0  0  0  0  0  0
   -2.2212   -4.6708    3.9631 H   0  0  0  0  0  0  0  0  0  0  0  0
   -2.3323   -6.9719    4.0912 H   0  0  0  0  0  0  0  0  0  0  0  0
   -2.2169   -8.8859    5.6571 H   0  0  0  0  0  0  0  0  0  0  0  0
   -0.0299   -9.5584    6.6620 H   0  0  0  0  0  0  0  0  0  0  0  0
    2.0351   -8.2739    6.0881 H   0  0  0  0  0  0  0  0  0  0  0  0
    1.9127   -6.3398    4.5502 H   0  0  0  0  0  0  0  0  0  0  0  0
    1.6536   -5.7060    2.3751 H   0  0  0  0  0  0  0  0  0  0  0  0
    1.5570   -3.7939    0.8571 H   0  0  0  0  0  0  0  0  0  0  0  0
    3.5222   -0.7403   -1.6065 H   0  0  0  0  0  0  0  0  0  0  0  0
    3.4461   -2.7445   -3.0943 H   0  0  0  0  0  0  0  0  0  0  0  0
    2.2244   -4.6509   -3.9790 H   0  0  0  0  0  0  0  0  0  0  0  0
   -1.9226   -6.3706   -4.5360 H   0  0  0  0  0  0  0  0  0  0  0  0
   -2.0560   -8.2719   -6.0717 H   0  0  0  0  0  0  0  0  0  0  0  0
   -0.0004    0.6935    0.0000 Cu  0  0  0  0  0 15  0  0  0  0  0  0
  1  2  1  0
  2  3  1  0
  3  4  2  0
  4  5  1  0
  5  6  2  0
  6  7  1  0
  7  8  2  0
  8  9  1  0
  9 10  2  0
 10 11  1  0
 11 12  1  0
 12 13  2  0
 13 14  1  0
 13 15  1  0
 15 16  2  0
 16 17  1  0
 17 18  2  0
 18 19  1  0
 19 20  1  0
 20 21  2  0
 21 22  1  0
 22 23  2  0
 23 24  1  0
 24 25  2  0
 19 26  2  0
 26 27  1  0
 27 28  2  0
 11 29  2  0
 29 30  1  0
 29 31  1  0
 31 32  2  0
 32 33  1  0
 33 34  2  0
  6 35  1  0
 35 36  2  0
 36  3  1  0
 34  7  1  0
 33 10  1  0
 28 12  1  0
 28 17  1  0
 25 20  1  0
  1 37  1  0
  1 38  1  0
  1 39  1  0
  4 40  1  0
  5 41  1  0
  8 42  1  0
  9 43  1  0
 15 44  1  0
 16 45  1  0
 18 46  1  0
 21 47  1  0
 22 48  1  0
 23 49  1  0
 24 50  1  0
 25 51  1  0
 26 52  1  0
 27 53  1  0
 31 54  1  0
 32 55  1  0
 34 56  1  0
 35 57  1  0
 36 58  1  0
M  CHG  1  59   2
M  END
$$$$
