
     RDKit          3D

131135  0  0  0  0  0  0  0  0999 V2000
    4.0570   -5.7899   -6.0307 C   0  0  0  0  0  0  0  0  0  0  0  0
    3.9014   -7.1838   -6.6402 C   0  0  0  0  0  0  0  0  0  0  0  0
    3.2885   -7.1471   -8.0443 C   0  0  0  0  0  0  0  0  0  0  0  0
    3.1670   -8.5171   -8.7289 C   0  0  0  0  0  0  0  0  0  0  0  0
    2.2922   -9.5640   -8.0225 C   0  0  0  0  0  0  0  0  0  0  0  0
    0.7986   -9.2373   -7.9640 C   0  0  0  0  0  0  0  0  0  0  0  0
    0.4776   -8.0991   -7.1792 O   0  0  0  0  0  0  0  0  0  0  0  0
    0.5778   -8.1527   -5.8219 C   0  0  0  0  0  0  0  0  0  0  0  0
    0.7463   -9.3191   -5.0705 C   0  0  0  0  0  0  0  0  0  0  0  0
    0.8405   -9.2495   -3.6726 C   0  0  0  0  0  0  0  0  0  0  0  0
    0.7622   -8.0217   -3.0132 C   0  0  0  0  0  0  0  0  0  0  0  0
    0.8599   -7.8604   -1.6666 O   0  0  0  0  0  0  0  0  0  0  0  0
    1.0942   -8.9784   -0.8336 C   0  0  0  0  0  0  0  0  0  0  0  0
    1.2996   -8.4691    0.5859 C   0  0  0  0  0  0  0  0  0  0  0  0
    1.5073   -9.5960    1.6048 C   0  0  0  0  0  0  0  0  0  0  0  0
    0.2129  -10.3144    1.9975 C   0  0  0  0  0  0  0  0  0  0  0  0
    0.4321  -11.4948    2.9453 C   0  0  0  0  0  0  0  0  0  0  0  0
   -0.8733  -12.1556    3.3891 C   0  0  0  0  0  0  0  0  0  0  0  0
    0.5800   -6.8362   -3.7658 C   0  0  0  0  0  0  0  0  0  0  0  0
    0.5156   -5.5340   -3.0499 C   0  0  0  0  0  0  0  0  0  0  0  0
   -0.6163   -5.1971   -2.2681 C   0  0  0  0  0  0  0  0  0  0  0  0
   -0.6454   -4.0422   -1.5147 C   0  0  0  0  0  0  0  0  0  0  0  0
    0.4708   -3.1620   -1.4600 C   0  0  0  0  0  0  0  0  0  0  0  0
    0.5011   -2.0249   -0.5675 C   0  0  0  0  0  0  0  0  0  0  0  0
   -0.5078   -2.0374    0.5324 C   0  0  0  0  0  0  0  0  0  0  0  0
   -1.6102   -1.1133    0.6639 C   0  0  0  0  0  0  0  0  0  0  0  0
   -1.7318    0.0000   -0.0000 O   0  0  0  0  0  0  0  0  0  0  0  0
   -2.6900   -1.4451    1.5627 C   0  0  0  0  0  0  0  0  0  0  0  0
   -2.6747   -2.5690    2.3323 C   0  0  0  0  0  0  0  0  0  0  0  0
   -1.5644   -3.4720    2.2933 C   0  0  0  0  0  0  0  0  0  0  0  0
   -1.5535   -4.6292    3.0988 C   0  0  0  0  0  0  0  0  0  0  0  0
   -0.4953   -5.5389    3.0750 C   0  0  0  0  0  0  0  0  0  0  0  0
   -0.4705   -6.7688    3.9037 C   0  0  0  0  0  0  0  0  0  0  0  0
    0.7583   -7.2884    4.3375 C   0  0  0  0  0  0  0  0  0  0  0  0
    0.8611   -8.4664    5.0845 C   0  0  0  0  0  0  0  0  0  0  0  0
    2.1286   -8.8900    5.3553 O   0  0  0  0  0  0  0  0  0  0  0  0
    2.3527   -9.8691    6.3597 C   0  0  0  0  0  0  0  0  0  0  0  0
    2.1069   -9.3450    7.7730 C   0  0  0  0  0  0  0  0  0  0  0  0
    2.9356   -8.1037    8.1113 C   0  0  0  0  0  0  0  0  0  0  0  0
    2.6809   -7.5727    9.5234 C   0  0  0  0  0  0  0  0  0  0  0  0
    3.4998   -6.3241    9.8633 C   0  0  0  0  0  0  0  0  0  0  0  0
    3.2358   -5.7920   11.2727 C   0  0  0  0  0  0  0  0  0  0  0  0
   -0.3066   -9.1424    5.4513 C   0  0  0  0  0  0  0  0  0  0  0  0
   -1.5441   -8.6426    5.0378 C   0  0  0  0  0  0  0  0  0  0  0  0
   -1.6464   -7.4818    4.2663 C   0  0  0  0  0  0  0  0  0  0  0  0
   -2.8484   -6.9862    3.8559 O   0  0  0  0  0  0  0  0  0  0  0  0
   -3.9293   -7.8674    3.5788 C   0  0  0  0  0  0  0  0  0  0  0  0
   -3.6440   -8.8245    2.4244 C   0  0  0  0  0  0  0  0  0  0  0  0
   -3.1594   -8.1172    1.1564 C   0  0  0  0  0  0  0  0  0  0  0  0
   -3.0676   -9.0479   -0.0544 C   0  0  0  0  0  0  0  0  0  0  0  0
   -2.5907   -8.3427   -1.3264 C   0  0  0  0  0  0  0  0  0  0  0  0
   -2.5503   -9.2553   -2.5525 C   0  0  0  0  0  0  0  0  0  0  0  0
    0.6055   -5.2217    2.2316 C   0  0  0  0  0  0  0  0  0  0  0  0
    0.6203   -4.0903    1.4434 C   0  0  0  0  0  0  0  0  0  0  0  0
   -0.4773   -3.1868    1.4096 C   0  0  0  0  0  0  0  0  0  0  0  0
    1.6116   -1.1076   -0.6745 C   0  0  0  0  0  0  0  0  0  0  0  0
    1.7318   -0.0000    0.0000 O   0  0  0  0  0  0  0  0  0  0  0  0
    2.7026   -1.4424   -1.5581 C   0  0  0  0  0  0  0  0  0  0  0  0
    2.6958   -2.5668   -2.3285 C   0  0  0  0  0  0  0  0  0  0  0  0
    1.5781   -3.4596   -2.3138 C   0  0  0  0  0  0  0  0  0  0  0  0
    1.5763   -4.6398   -3.0908 C   0  0  0  0  0  0  0  0  0  0  0  0
    0.4972   -6.9187   -5.1533 C   0  0  0  0  0  0  0  0  0  0  0  0
    4.4783   -5.8386   -5.0105 H   0  0  0  0  0  0  0  0  0  0  0  0
    3.0783   -5.2815   -5.9650 H   0  0  0  0  0  0  0  0  0  0  0  0
    4.7232   -5.1532   -6.6423 H   0  0  0  0  0  0  0  0  0  0  0  0
    4.8890   -7.6842   -6.6842 H   0  0  0  0  0  0  0  0  0  0  0  0
    3.2729   -7.7957   -5.9698 H   0  0  0  0  0  0  0  0  0  0  0  0
    3.9147   -6.4983   -8.6872 H   0  0  0  0  0  0  0  0  0  0  0  0
    2.2955   -6.6685   -7.9921 H   0  0  0  0  0  0  0  0  0  0  0  0
    2.7792   -8.3692   -9.7555 H   0  0  0  0  0  0  0  0  0  0  0  0
    4.1812   -8.9450   -8.8457 H   0  0  0  0  0  0  0  0  0  0  0  0
    2.6716   -9.7565   -7.0040 H   0  0  0  0  0  0  0  0  0  0  0  0
    2.3839  -10.5238   -8.5657 H   0  0  0  0  0  0  0  0  0  0  0  0
    0.4306   -8.9879   -8.9732 H   0  0  0  0  0  0  0  0  0  0  0  0
    0.2220  -10.1147   -7.6130 H   0  0  0  0  0  0  0  0  0  0  0  0
    0.8111  -10.2966   -5.5495 H   0  0  0  0  0  0  0  0  0  0  0  0
    0.9736  -10.1746   -3.1103 H   0  0  0  0  0  0  0  0  0  0  0  0
    1.9967   -9.5233   -1.1765 H   0  0  0  0  0  0  0  0  0  0  0  0
    0.2380   -9.6781   -0.8944 H   0  0  0  0  0  0  0  0  0  0  0  0
    0.4299   -7.8519    0.8745 H   0  0  0  0  0  0  0  0  0  0  0  0
    2.1713   -7.7913    0.5748 H   0  0  0  0  0  0  0  0  0  0  0  0
    1.9667   -9.1810    2.5184 H   0  0  0  0  0  0  0  0  0  0  0  0
    2.2352  -10.3293    1.2033 H   0  0  0  0  0  0  0  0  0  0  0  0
   -0.3151  -10.6755    1.0938 H   0  0  0  0  0  0  0  0  0  0  0  0
   -0.4630   -9.5823    2.4763 H   0  0  0  0  0  0  0  0  0  0  0  0
    1.0802  -12.2450    2.4520 H   0  0  0  0  0  0  0  0  0  0  0  0
    0.9918  -11.1425    3.8310 H   0  0  0  0  0  0  0  0  0  0  0  0
   -1.4434  -12.5358    2.5212 H   0  0  0  0  0  0  0  0  0  0  0  0
   -1.5192  -11.4320    3.9183 H   0  0  0  0  0  0  0  0  0  0  0  0
   -0.6903  -13.0072    4.0690 H   0  0  0  0  0  0  0  0  0  0  0  0
   -1.4770   -5.8686   -2.2631 H   0  0  0  0  0  0  0  0  0  0  0  0
   -1.5389   -3.8040   -0.9362 H   0  0  0  0  0  0  0  0  0  0  0  0
   -3.5178   -0.7326    1.5926 H   0  0  0  0  0  0  0  0  0  0  0  0
   -3.5089   -2.7944    3.0043 H   0  0  0  0  0  0  0  0  0  0  0  0
   -2.4048   -4.8060    3.7536 H   0  0  0  0  0  0  0  0  0  0  0  0
    1.6883   -6.7703    4.1007 H   0  0  0  0  0  0  0  0  0  0  0  0
    3.4123  -10.1461    6.2368 H   0  0  0  0  0  0  0  0  0  0  0  0
    1.7501  -10.7752    6.1584 H   0  0  0  0  0  0  0  0  0  0  0  0
    1.0334   -9.1180    7.9057 H   0  0  0  0  0  0  0  0  0  0  0  0
    2.3408  -10.1637    8.4805 H   0  0  0  0  0  0  0  0  0  0  0  0
    4.0118   -8.3386    7.9924 H   0  0  0  0  0  0  0  0  0  0  0  0
    2.7140   -7.3105    7.3744 H   0  0  0  0  0  0  0  0  0  0  0  0
    2.9022   -8.3680   10.2630 H   0  0  0  0  0  0  0  0  0  0  0  0
    1.6028   -7.3436    9.6372 H   0  0  0  0  0  0  0  0  0  0  0  0
    4.5768   -6.5543    9.7495 H   0  0  0  0  0  0  0  0  0  0  0  0
    3.2783   -5.5337    9.1206 H   0  0  0  0  0  0  0  0  0  0  0  0
    3.8406   -4.8926   11.4863 H   0  0  0  0  0  0  0  0  0  0  0  0
    2.1721   -5.5198   11.4039 H   0  0  0  0  0  0  0  0  0  0  0  0
    3.4805   -6.5509   12.0390 H   0  0  0  0  0  0  0  0  0  0  0  0
   -0.2761  -10.0595    6.0399 H   0  0  0  0  0  0  0  0  0  0  0  0
   -2.4475   -9.1835    5.3236 H   0  0  0  0  0  0  0  0  0  0  0  0
   -4.2323   -8.4179    4.4898 H   0  0  0  0  0  0  0  0  0  0  0  0
   -4.7593   -7.1926    3.3136 H   0  0  0  0  0  0  0  0  0  0  0  0
   -4.5808   -9.3765    2.2167 H   0  0  0  0  0  0  0  0  0  0  0  0
   -2.9015   -9.5823    2.7330 H   0  0  0  0  0  0  0  0  0  0  0  0
   -2.1724   -7.6566    1.3465 H   0  0  0  0  0  0  0  0  0  0  0  0
   -3.8422   -7.2774    0.9218 H   0  0  0  0  0  0  0  0  0  0  0  0
   -4.0588   -9.5079   -0.2390 H   0  0  0  0  0  0  0  0  0  0  0  0
   -2.3824   -9.8863    0.1794 H   0  0  0  0  0  0  0  0  0  0  0  0
   -1.5883   -7.9146   -1.1514 H   0  0  0  0  0  0  0  0  0  0  0  0
   -3.2578   -7.4828   -1.5315 H   0  0  0  0  0  0  0  0  0  0  0  0
   -3.5540   -9.6584   -2.7843 H   0  0  0  0  0  0  0  0  0  0  0  0
   -1.8760  -10.1155   -2.3873 H   0  0  0  0  0  0  0  0  0  0  0  0
   -2.1807   -8.7196   -3.4436 H   0  0  0  0  0  0  0  0  0  0  0  0
    1.4614   -5.8969    2.1847 H   0  0  0  0  0  0  0  0  0  0  0  0
    1.4942   -3.8922    0.8221 H   0  0  0  0  0  0  0  0  0  0  0  0
    3.5362   -0.7361   -1.5710 H   0  0  0  0  0  0  0  0  0  0  0  0
    3.5437   -2.7988   -2.9811 H   0  0  0  0  0  0  0  0  0  0  0  0
    2.4527   -4.8683   -3.7031 H   0  0  0  0  0  0  0  0  0  0  0  0
    0.3617   -6.0125   -5.7478 H   0  0  0  0  0  0  0  0  0  0  0  0
   -0.0001    0.6949    0.0000 Cu  0  0  0  0  0 15  0  0  0  0  0  0
  1  2  1  0
  2  3  1  0
  3  4  1  0
  4  5  1  0
  5  6  1  0
  6  7  1  0
  7  8  1  0
  8  9  2  0
  9 10  1  0
 10 11  2  0
 11 12  1  0
 12 13  1  0
 13 14  1  0
 14 15  1  0
 15 16  1  0
 16 17  1  0
 17 18  1  0
 11 19  1  0
 19 20  1  0
 20 21  2  0
 21 22  1  0
 22 23  2  0
 23 24  1  0
 24 25  1  0
 25 26  2  0
 26 27  1  0
 26 28  1  0
 28 29  2  0
 29 30  1  0
 30 31  2  0
 31 32  1  0
 32 33  1  0
 33 34  2  0
 34 35  1  0
 35 36  1  0
 36 37  1  0
 37 38  1  0
 38 39  1  0
 39 40  1  0
 40 41  1  0
 41 42  1  0
 35 43  2  0
 43 44  1  0
 44 45  2  0
 45 46  1  0
 46 47  1  0
 47 48  1  0
 48 49  1  0
 49 50  1  0
 50 51  1  0
 51 52  1  0
 32 53  2  0
 53 54  1  0
 54 55  2  0
 24 56  2  0
 56 57  1  0
 56 58  1  0
 58 59  2  0
 59 60  1  0
 60 61  2  0
 19 62  2  0
 62  8  1  0
 61 20  1  0
 60 23  1  0
 55 25  1  0
 55 30  1  0
 45 33  1  0
  1 63  1  0
  1 64  1  0
  1 65  1  0
  2 66  1  0
  2 67  1  0
  3 68  1  0
  3 69  1  0
  4 70  1  0
  4 71  1  0
  5 72  1  0
  5 73  1  0
  6 74  1  0
  6 75  1  0
  9 76  1  0
 10 77  1  0
 13 78  1  0
 13 79  1  0
 14 80  1  0
 14 81  1  0
 15 82  1  0
 15 83  1  0
 16 84  1  0
 16 85  1  0
 17 86  1  0
 17 87  1  0
 18 88  1  0
 18 89  1  0
 18 90  1  0
 21 91  1  0
 22 92  1  0
 28 93  1  0
 29 94  1  0
 31 95  1  0
 34 96  1  0
 37 97  1  0
 37 98  1  0
 38 99  1  0
 38100  1  0
 39101  1  0
 39102  1  0
 40103  1  0
 40104  1  0
 41105  1  0
 41106  1  0
 42107  1  0
 42108  1  0
 42109  1  0
 43110  1  0
 44111  1  0
 47112  1  0
 47113  1  0
 48114  1  0
 48115  1  0
 49116  1  0
 49117  1  0
 50118  1  0
 50119  1  0
 51120  1  0
 51121  1  0
 52122  1  0
 52123  1  0
 52124  1  0
 53125  1  0
 54126  1  0
 58127  1  0
 59128  1  0
 61129  1  0
 62130  1  0
M  CHG  1 131   2
M  END
$$$$
