
     RDKit          3D

131135  0  0  0  0  0  0  0  0999 V2000
   10.0877   -6.3049   -3.7360 C   0  0  0  0  0  0  0  0  0  0  0  0
    9.1102   -6.3376   -2.5580 C   0  0  0  0  0  0  0  0  0  0  0  0
    7.6572   -6.0117   -2.9292 C   0  0  0  0  0  0  0  0  0  0  0  0
    7.4379   -4.5895   -3.4533 C   0  0  0  0  0  0  0  0  0  0  0  0
    5.9649   -4.2721   -3.7203 C   0  0  0  0  0  0  0  0  0  0  0  0
    5.7367   -2.8531   -4.2407 C   0  0  0  0  0  0  0  0  0  0  0  0
    6.2737   -1.8512   -3.3935 O   0  0  0  0  0  0  0  0  0  0  0  0
    5.6784   -1.5740   -2.1981 C   0  0  0  0  0  0  0  0  0  0  0  0
    6.3882   -0.7375   -1.3290 C   0  0  0  0  0  0  0  0  0  0  0  0
    5.8542   -0.3769   -0.0908 C   0  0  0  0  0  0  0  0  0  0  0  0
    4.5956   -0.8465    0.3086 C   0  0  0  0  0  0  0  0  0  0  0  0
    4.0366   -0.6124    1.5305 O   0  0  0  0  0  0  0  0  0  0  0  0
    4.5579    0.3966    2.3806 C   0  0  0  0  0  0  0  0  0  0  0  0
    4.2578    1.8117    1.8857 C   0  0  0  0  0  0  0  0  0  0  0  0
    2.7945    2.2411    2.0501 C   0  0  0  0  0  0  0  0  0  0  0  0
    2.4818    3.4889    1.2152 C   0  0  0  0  0  0  0  0  0  0  0  0
    1.1115    4.1330    1.4574 C   0  0  0  0  0  0  0  0  0  0  0  0
   -0.0871    3.2725    1.0558 C   0  0  0  0  0  0  0  0  0  0  0  0
    3.8614   -1.6740   -0.5706 C   0  0  0  0  0  0  0  0  0  0  0  0
    2.5422   -2.1920   -0.1483 C   0  0  0  0  0  0  0  0  0  0  0  0
    2.2350   -3.5297   -0.1632 C   0  0  0  0  0  0  0  0  0  0  0  0
    0.9958   -4.0287    0.3441 C   0  0  0  0  0  0  0  0  0  0  0  0
    0.6771   -5.4058    0.3109 C   0  0  0  0  0  0  0  0  0  0  0  0
   -0.4930   -5.8852    0.8782 C   0  0  0  0  0  0  0  0  0  0  0  0
   -1.3779   -4.9926    1.5259 C   0  0  0  0  0  0  0  0  0  0  0  0
   -1.0852   -3.6438    1.5894 C   0  0  0  0  0  0  0  0  0  0  0  0
    0.0868   -3.1143    0.9793 C   0  0  0  0  0  0  0  0  0  0  0  0
    0.3988   -1.7279    1.0142 C   0  0  0  0  0  0  0  0  0  0  0  0
   -0.4093   -0.7875    1.8344 C   0  0  0  0  0  0  0  0  0  0  0  0
   -1.5352   -0.0889    1.2813 C   0  0  0  0  0  0  0  0  0  0  0  0
   -1.6688   -0.0000    0.0000 O   0  0  0  0  0  0  0  0  0  0  0  0
   -2.3834    0.7021    2.1709 C   0  0  0  0  0  0  0  0  0  0  0  0
   -3.6018    1.3338    1.6177 C   0  0  0  0  0  0  0  0  0  0  0  0
   -3.8305    2.7016    1.7572 C   0  0  0  0  0  0  0  0  0  0  0  0
   -4.9838    3.3141    1.2384 C   0  0  0  0  0  0  0  0  0  0  0  0
   -5.0837    4.6587    1.4298 O   0  0  0  0  0  0  0  0  0  0  0  0
   -6.2268    5.3422    0.9541 C   0  0  0  0  0  0  0  0  0  0  0  0
   -6.1032    6.8075    1.3423 C   0  0  0  0  0  0  0  0  0  0  0  0
   -6.0694    7.0393    2.8548 C   0  0  0  0  0  0  0  0  0  0  0  0
   -5.9194    8.5124    3.2403 C   0  0  0  0  0  0  0  0  0  0  0  0
   -5.8813    8.7473    4.7532 C   0  0  0  0  0  0  0  0  0  0  0  0
   -5.7218   10.2200    5.1343 C   0  0  0  0  0  0  0  0  0  0  0  0
   -5.9252    2.5289    0.5680 C   0  0  0  0  0  0  0  0  0  0  0  0
   -5.7178    1.1463    0.4348 C   0  0  0  0  0  0  0  0  0  0  0  0
   -4.5741    0.5414    0.9568 C   0  0  0  0  0  0  0  0  0  0  0  0
   -4.3222   -0.7865    0.9187 O   0  0  0  0  0  0  0  0  0  0  0  0
   -5.3320   -1.7113    0.5655 C   0  0  0  0  0  0  0  0  0  0  0  0
   -4.8600   -3.0921    1.0002 C   0  0  0  0  0  0  0  0  0  0  0  0
   -4.9280   -3.3579    2.5128 C   0  0  0  0  0  0  0  0  0  0  0  0
   -4.2337   -2.3275    3.4139 C   0  0  0  0  0  0  0  0  0  0  0  0
   -4.0839   -2.7944    4.8635 C   0  0  0  0  0  0  0  0  0  0  0  0
   -3.3828   -1.7630    5.7496 C   0  0  0  0  0  0  0  0  0  0  0  0
   -1.9686    0.9337    3.4578 C   0  0  0  0  0  0  0  0  0  0  0  0
   -0.7517    0.3958    3.9790 C   0  0  0  0  0  0  0  0  0  0  0  0
   -0.3114    0.6948    5.2887 C   0  0  0  0  0  0  0  0  0  0  0  0
    0.8691    0.1648    5.7841 C   0  0  0  0  0  0  0  0  0  0  0  0
    1.6416   -0.7046    4.9800 C   0  0  0  0  0  0  0  0  0  0  0  0
    1.2259   -1.0374    3.7042 C   0  0  0  0  0  0  0  0  0  0  0  0
    0.0290   -0.4878    3.1586 C   0  0  0  0  0  0  0  0  0  0  0  0
    1.5399   -1.2457    0.3068 C   0  0  0  0  0  0  0  0  0  0  0  0
    1.6688    0.0000    0.0000 O   0  0  0  0  0  0  0  0  0  0  0  0
    4.4145   -2.0357   -1.8062 C   0  0  0  0  0  0  0  0  0  0  0  0
   11.1006   -6.6145   -3.4223 H   0  0  0  0  0  0  0  0  0  0  0  0
   10.1728   -5.2942   -4.1730 H   0  0  0  0  0  0  0  0  0  0  0  0
    9.7623   -6.9899   -4.5414 H   0  0  0  0  0  0  0  0  0  0  0  0
    9.4504   -5.6299   -1.7773 H   0  0  0  0  0  0  0  0  0  0  0  0
    9.1391   -7.3411   -2.0936 H   0  0  0  0  0  0  0  0  0  0  0  0
    7.0199   -6.1619   -2.0367 H   0  0  0  0  0  0  0  0  0  0  0  0
    7.3011   -6.7406   -3.6846 H   0  0  0  0  0  0  0  0  0  0  0  0
    7.8359   -3.8628   -2.7215 H   0  0  0  0  0  0  0  0  0  0  0  0
    8.0135   -4.4327   -4.3851 H   0  0  0  0  0  0  0  0  0  0  0  0
    5.5546   -4.9754   -4.4707 H   0  0  0  0  0  0  0  0  0  0  0  0
    5.3816   -4.4314   -2.7953 H   0  0  0  0  0  0  0  0  0  0  0  0
    6.2678   -2.7160   -5.1973 H   0  0  0  0  0  0  0  0  0  0  0  0
    4.6623   -2.6673   -4.4303 H   0  0  0  0  0  0  0  0  0  0  0  0
    7.3685   -0.3706   -1.6429 H   0  0  0  0  0  0  0  0  0  0  0  0
    6.4419    0.2681    0.5636 H   0  0  0  0  0  0  0  0  0  0  0  0
    5.6448    0.2485    2.5240 H   0  0  0  0  0  0  0  0  0  0  0  0
    4.0676    0.2194    3.3517 H   0  0  0  0  0  0  0  0  0  0  0  0
    4.5419    1.8772    0.8201 H   0  0  0  0  0  0  0  0  0  0  0  0
    4.9175    2.5186    2.4250 H   0  0  0  0  0  0  0  0  0  0  0  0
    2.1480    1.4056    1.7404 H   0  0  0  0  0  0  0  0  0  0  0  0
    2.5799    2.4356    3.1190 H   0  0  0  0  0  0  0  0  0  0  0  0
    3.2583    4.2536    1.4078 H   0  0  0  0  0  0  0  0  0  0  0  0
    2.5748    3.2261    0.1424 H   0  0  0  0  0  0  0  0  0  0  0  0
    1.0100    4.3916    2.5285 H   0  0  0  0  0  0  0  0  0  0  0  0
    1.0632    5.0876    0.9025 H   0  0  0  0  0  0  0  0  0  0  0  0
   -0.1636    2.3723    1.6955 H   0  0  0  0  0  0  0  0  0  0  0  0
   -1.0474    3.8033    1.1578 H   0  0  0  0  0  0  0  0  0  0  0  0
   -0.0177    3.0068   -0.0350 H   0  0  0  0  0  0  0  0  0  0  0  0
    2.9735   -4.2473   -0.5350 H   0  0  0  0  0  0  0  0  0  0  0  0
    1.3794   -6.0948   -0.1693 H   0  0  0  0  0  0  0  0  0  0  0  0
   -0.7250   -6.9535    0.8398 H   0  0  0  0  0  0  0  0  0  0  0  0
   -2.2940   -5.3716    1.9886 H   0  0  0  0  0  0  0  0  0  0  0  0
   -1.7556   -2.9578    2.1073 H   0  0  0  0  0  0  0  0  0  0  0  0
   -3.0994    3.3309    2.2693 H   0  0  0  0  0  0  0  0  0  0  0  0
   -6.3004    5.2352   -0.1467 H   0  0  0  0  0  0  0  0  0  0  0  0
   -7.1428    4.9005    1.3972 H   0  0  0  0  0  0  0  0  0  0  0  0
   -5.1860    7.2170    0.8793 H   0  0  0  0  0  0  0  0  0  0  0  0
   -6.9555    7.3520    0.8938 H   0  0  0  0  0  0  0  0  0  0  0  0
   -6.9966    6.6332    3.3056 H   0  0  0  0  0  0  0  0  0  0  0  0
   -5.2366    6.4556    3.2861 H   0  0  0  0  0  0  0  0  0  0  0  0
   -6.7526    9.0964    2.8008 H   0  0  0  0  0  0  0  0  0  0  0  0
   -4.9934    8.9162    2.7852 H   0  0  0  0  0  0  0  0  0  0  0  0
   -5.0512    8.1588    5.1894 H   0  0  0  0  0  0  0  0  0  0  0  0
   -6.8083    8.3455    5.2063 H   0  0  0  0  0  0  0  0  0  0  0  0
   -6.5570   10.8277    4.7393 H   0  0  0  0  0  0  0  0  0  0  0  0
   -5.6981   10.3551    6.2304 H   0  0  0  0  0  0  0  0  0  0  0  0
   -4.7845   10.6394    4.7241 H   0  0  0  0  0  0  0  0  0  0  0  0
   -6.8278    2.9684    0.1414 H   0  0  0  0  0  0  0  0  0  0  0  0
   -6.4680    0.5491   -0.0862 H   0  0  0  0  0  0  0  0  0  0  0  0
   -5.5025   -1.6782   -0.5286 H   0  0  0  0  0  0  0  0  0  0  0  0
   -6.2843   -1.4432    1.0666 H   0  0  0  0  0  0  0  0  0  0  0  0
   -5.4728   -3.8480    0.4758 H   0  0  0  0  0  0  0  0  0  0  0  0
   -3.8248   -3.2183    0.6364 H   0  0  0  0  0  0  0  0  0  0  0  0
   -4.4839   -4.3547    2.7003 H   0  0  0  0  0  0  0  0  0  0  0  0
   -5.9894   -3.4420    2.8196 H   0  0  0  0  0  0  0  0  0  0  0  0
   -4.7921   -1.3745    3.3946 H   0  0  0  0  0  0  0  0  0  0  0  0
   -3.2385   -2.0800    3.0082 H   0  0  0  0  0  0  0  0  0  0  0  0
   -5.0821   -3.0318    5.2810 H   0  0  0  0  0  0  0  0  0  0  0  0
   -3.5127   -3.7432    4.8818 H   0  0  0  0  0  0  0  0  0  0  0  0
   -2.3669   -1.5423    5.3765 H   0  0  0  0  0  0  0  0  0  0  0  0
   -3.2916   -2.1169    6.7923 H   0  0  0  0  0  0  0  0  0  0  0  0
   -3.9398   -0.8077    5.7646 H   0  0  0  0  0  0  0  0  0  0  0  0
   -2.5830    1.5569    4.1148 H   0  0  0  0  0  0  0  0  0  0  0  0
   -0.9231    1.3572    5.9091 H   0  0  0  0  0  0  0  0  0  0  0  0
    1.1980    0.4087    6.7984 H   0  0  0  0  0  0  0  0  0  0  0  0
    2.5696   -1.1289    5.3749 H   0  0  0  0  0  0  0  0  0  0  0  0
    1.8219   -1.7159    3.0916 H   0  0  0  0  0  0  0  0  0  0  0  0
    3.8156   -2.6670   -2.4628 H   0  0  0  0  0  0  0  0  0  0  0  0
    0.0605    1.0711    0.0000 Cu  0  0  0  0  0 15  0  0  0  0  0  0
  1  2  1  0
  2  3  1  0
  3  4  1  0
  4  5  1  0
  5  6  1  0
  6  7  1  0
  7  8  1  0
  8  9  2  0
  9 10  1  0
 10 11  2  0
 11 12  1  0
 12 13  1  0
 13 14  1  0
 14 15  1  0
 15 16  1  0
 16 17  1  0
 17 18  1  0
 11 19  1  0
 19 20  1  0
 20 21  2  0
 21 22  1  0
 22 23  2  0
 23 24  1  0
 24 25  2  0
 25 26  1  0
 26 27  2  0
 27 28  1  0
 28 29  1  0
 29 30  2  0
 30 31  1  0
 30 32  1  0
 32 33  1  0
 33 34  2  0
 34 35  1  0
 35 36  1  0
 36 37  1  0
 37 38  1  0
 38 39  1  0
 39 40  1  0
 40 41  1  0
 41 42  1  0
 35 43  2  0
 43 44  1  0
 44 45  2  0
 45 46  1  0
 46 47  1  0
 47 48  1  0
 48 49  1  0
 49 50  1  0
 50 51  1  0
 51 52  1  0
 32 53  2  0
 53 54  1  0
 54 55  2  0
 55 56  1  0
 56 57  2  0
 57 58  1  0
 58 59  2  0
 28 60  2  0
 60 61  1  0
 19 62  2  0
 62  8  1  0
 60 20  1  0
 27 22  1  0
 59 29  1  0
 45 33  1  0
 59 54  1  0
  1 63  1  0
  1 64  1  0
  1 65  1  0
  2 66  1  0
  2 67  1  0
  3 68  1  0
  3 69  1  0
  4 70  1  0
  4 71  1  0
  5 72  1  0
  5 73  1  0
  6 74  1  0
  6 75  1  0
  9 76  1  0
 10 77  1  0
 13 78  1  0
 13 79  1  0
 14 80  1  0
 14 81  1  0
 15 82  1  0
 15 83  1  0
 16 84  1  0
 16 85  1  0
 17 86  1  0
 17 87  1  0
 18 88  1  0
 18 89  1  0
 18 90  1  0
 21 91  1  0
 23 92  1  0
 24 93  1  0
 25 94  1  0
 26 95  1  0
 34 96  1  0
 37 97  1  0
 37 98  1  0
 38 99  1  0
 38100  1  0
 39101  1  0
 39102  1  0
 40103  1  0
 40104  1  0
 41105  1  0
 41106  1  0
 42107  1  0
 42108  1  0
 42109  1  0
 43110  1  0
 44111  1  0
 47112  1  0
 47113  1  0
 48114  1  0
 48115  1  0
 49116  1  0
 49117  1  0
 50118  1  0
 50119  1  0
 51120  1  0
 51121  1  0
 52122  1  0
 52123  1  0
 52124  1  0
 53125  1  0
 55126  1  0
 56127  1  0
 57128  1  0
 58129  1  0
 62130  1  0
M  CHG  1 131   2
M  END
$$$$
