
     RDKit          3D

131135  0  0  0  0  0  0  0  0999 V2000
   -7.3634    0.8702   -2.8658 C   0  0  0  0  0  0  0  0  0  0  0  0
   -7.7779   -0.5950   -2.7667 C   0  0  0  0  0  0  0  0  0  0  0  0
   -9.0793   -0.7461   -1.9649 C   0  0  0  0  0  0  0  0  0  0  0  0
   -9.5890   -2.1977   -1.9093 C   0  0  0  0  0  0  0  0  0  0  0  0
   -8.6705   -3.1904   -1.1698 C   0  0  0  0  0  0  0  0  0  0  0  0
   -8.5531   -2.9219    0.3401 C   0  0  0  0  0  0  0  0  0  0  0  0
   -7.7179   -1.7965    0.6132 O   0  0  0  0  0  0  0  0  0  0  0  0
   -6.3275   -1.7461    0.4265 C   0  0  0  0  0  0  0  0  0  0  0  0
   -5.5520   -2.8932    0.1743 C   0  0  0  0  0  0  0  0  0  0  0  0
   -4.1752   -2.7833   -0.0354 C   0  0  0  0  0  0  0  0  0  0  0  0
   -3.5494   -1.5260    0.0073 C   0  0  0  0  0  0  0  0  0  0  0  0
   -2.1782   -1.3651   -0.2474 O   0  0  0  0  0  0  0  0  0  0  0  0
   -1.2650   -2.4090   -0.5683 C   0  0  0  0  0  0  0  0  0  0  0  0
    0.1122   -1.7869   -0.8066 C   0  0  0  0  0  0  0  0  0  0  0  0
    1.1949   -2.8285   -1.1236 C   0  0  0  0  0  0  0  0  0  0  0  0
    1.7263   -3.5149    0.1416 C   0  0  0  0  0  0  0  0  0  0  0  0
    2.8134   -4.5377   -0.2049 C   0  0  0  0  0  0  0  0  0  0  0  0
    3.3919   -5.1749    1.0548 C   0  0  0  0  0  0  0  0  0  0  0  0
   -4.3180   -0.3809    0.2931 C   0  0  0  0  0  0  0  0  0  0  0  0
   -3.6644    0.9412    0.3606 C   0  0  0  0  0  0  0  0  0  0  0  0
   -2.6249    1.1516    1.2735 C   0  0  0  0  0  0  0  0  0  0  0  0
   -1.8516    2.3073    1.2105 C   0  0  0  0  0  0  0  0  0  0  0  0
   -2.0913    3.2759    0.2151 C   0  0  0  0  0  0  0  0  0  0  0  0
   -1.2165    4.3774    0.0201 C   0  0  0  0  0  0  0  0  0  0  0  0
    0.0868    4.4625    0.7376 C   0  0  0  0  0  0  0  0  0  0  0  0
    0.2898    5.4913    1.6760 C   0  0  0  0  0  0  0  0  0  0  0  0
   -0.6738    6.4777    1.8610 O   0  0  0  0  0  0  0  0  0  0  0  0
    1.4536    5.5244    2.4471 C   0  0  0  0  0  0  0  0  0  0  0  0
    2.4142    4.5212    2.3218 C   0  0  0  0  0  0  0  0  0  0  0  0
    2.2387    3.4855    1.3942 C   0  0  0  0  0  0  0  0  0  0  0  0
    3.1795    2.4454    1.3106 C   0  0  0  0  0  0  0  0  0  0  0  0
    2.9957    1.3855    0.4068 C   0  0  0  0  0  0  0  0  0  0  0  0
    3.9061    0.2116    0.4059 C   0  0  0  0  0  0  0  0  0  0  0  0
    4.3883   -0.2915   -0.8150 C   0  0  0  0  0  0  0  0  0  0  0  0
    5.1846   -1.4389   -0.8597 C   0  0  0  0  0  0  0  0  0  0  0  0
    5.6050   -1.9019   -2.1171 O   0  0  0  0  0  0  0  0  0  0  0  0
    6.4831   -3.0049   -2.3471 C   0  0  0  0  0  0  0  0  0  0  0  0
    7.9380   -2.6319   -2.0384 C   0  0  0  0  0  0  0  0  0  0  0  0
    8.4321   -1.4909   -2.9373 C   0  0  0  0  0  0  0  0  0  0  0  0
    9.8967   -1.1504   -2.6385 C   0  0  0  0  0  0  0  0  0  0  0  0
   10.3889   -0.0072   -3.5331 C   0  0  0  0  0  0  0  0  0  0  0  0
   11.8466    0.3345   -3.2390 C   0  0  0  0  0  0  0  0  0  0  0  0
    5.5168   -2.0881    0.3409 C   0  0  0  0  0  0  0  0  0  0  0  0
    5.0435   -1.6023    1.5599 C   0  0  0  0  0  0  0  0  0  0  0  0
    4.2215   -0.4612    1.6066 C   0  0  0  0  0  0  0  0  0  0  0  0
    3.6877    0.0187    2.8157 O   0  0  0  0  0  0  0  0  0  0  0  0
    3.6621   -0.6837    4.0588 C   0  0  0  0  0  0  0  0  0  0  0  0
    2.6652   -1.8481    4.0196 C   0  0  0  0  0  0  0  0  0  0  0  0
    1.2526   -1.3702    3.6584 C   0  0  0  0  0  0  0  0  0  0  0  0
    0.2491   -2.5279    3.7025 C   0  0  0  0  0  0  0  0  0  0  0  0
   -1.1462   -2.0530    3.2853 C   0  0  0  0  0  0  0  0  0  0  0  0
   -2.1489   -3.2024    3.2816 C   0  0  0  0  0  0  0  0  0  0  0  0
    1.9102    1.4267   -0.4787 C   0  0  0  0  0  0  0  0  0  0  0  0
    0.9739    2.4568   -0.4096 C   0  0  0  0  0  0  0  0  0  0  0  0
    1.0923    3.4730    0.5605 C   0  0  0  0  0  0  0  0  0  0  0  0
   -1.5402    5.3523   -0.9420 C   0  0  0  0  0  0  0  0  0  0  0  0
   -0.7079    6.4488   -1.1428 O   0  0  0  0  0  0  0  0  0  0  0  0
   -2.6916    5.2200   -1.7219 C   0  0  0  0  0  0  0  0  0  0  0  0
   -3.5135    4.1009   -1.5867 C   0  0  0  0  0  0  0  0  0  0  0  0
   -3.2153    3.1163   -0.6354 C   0  0  0  0  0  0  0  0  0  0  0  0
   -3.9933    1.9486   -0.5572 C   0  0  0  0  0  0  0  0  0  0  0  0
   -5.7004   -0.4973    0.4910 C   0  0  0  0  0  0  0  0  0  0  0  0
   -6.4053    0.9498   -3.4215 H   0  0  0  0  0  0  0  0  0  0  0  0
   -7.2224    1.2996   -1.8511 H   0  0  0  0  0  0  0  0  0  0  0  0
   -8.1380    1.4548   -3.4061 H   0  0  0  0  0  0  0  0  0  0  0  0
   -7.9187   -1.0007   -3.7920 H   0  0  0  0  0  0  0  0  0  0  0  0
   -6.9540   -1.1538   -2.2786 H   0  0  0  0  0  0  0  0  0  0  0  0
   -9.8672   -0.1330   -2.4550 H   0  0  0  0  0  0  0  0  0  0  0  0
   -8.9523   -0.3393   -0.9409 H   0  0  0  0  0  0  0  0  0  0  0  0
  -10.5894   -2.2035   -1.4243 H   0  0  0  0  0  0  0  0  0  0  0  0
   -9.7363   -2.5624   -2.9494 H   0  0  0  0  0  0  0  0  0  0  0  0
   -7.6700   -3.2288   -1.6451 H   0  0  0  0  0  0  0  0  0  0  0  0
   -9.1100   -4.2037   -1.2946 H   0  0  0  0  0  0  0  0  0  0  0  0
   -9.5623   -2.7250    0.7596 H   0  0  0  0  0  0  0  0  0  0  0  0
   -8.1619   -3.8205    0.8623 H   0  0  0  0  0  0  0  0  0  0  0  0
   -6.0018   -3.8746    0.1295 H   0  0  0  0  0  0  0  0  0  0  0  0
   -3.6066   -3.6803   -0.2396 H   0  0  0  0  0  0  0  0  0  0  0  0
   -1.6025   -2.9299   -1.4906 H   0  0  0  0  0  0  0  0  0  0  0  0
   -1.2222   -3.1334    0.2707 H   0  0  0  0  0  0  0  0  0  0  0  0
    0.4094   -1.1830    0.0791 H   0  0  0  0  0  0  0  0  0  0  0  0
    0.0287   -1.0925   -1.6708 H   0  0  0  0  0  0  0  0  0  0  0  0
    2.0411   -2.3069   -1.6230 H   0  0  0  0  0  0  0  0  0  0  0  0
    0.7981   -3.5858   -1.8349 H   0  0  0  0  0  0  0  0  0  0  0  0
    0.8958   -4.0359    0.6633 H   0  0  0  0  0  0  0  0  0  0  0  0
    2.1492   -2.7452    0.8238 H   0  0  0  0  0  0  0  0  0  0  0  0
    2.3825   -5.3362   -0.8474 H   0  0  0  0  0  0  0  0  0  0  0  0
    3.6338   -4.0426   -0.7670 H   0  0  0  0  0  0  0  0  0  0  0  0
    2.5928   -5.6906    1.6287 H   0  0  0  0  0  0  0  0  0  0  0  0
    3.8633   -4.4021    1.6974 H   0  0  0  0  0  0  0  0  0  0  0  0
    4.1657   -5.9194    0.7726 H   0  0  0  0  0  0  0  0  0  0  0  0
   -2.3881    0.3989    2.0134 H   0  0  0  0  0  0  0  0  0  0  0  0
   -1.0450    2.4161    1.9235 H   0  0  0  0  0  0  0  0  0  0  0  0
    1.6005    6.3178    3.1689 H   0  0  0  0  0  0  0  0  0  0  0  0
    3.2915    4.5507    2.9570 H   0  0  0  0  0  0  0  0  0  0  0  0
    4.0450    2.4488    1.9635 H   0  0  0  0  0  0  0  0  0  0  0  0
    4.1406    0.2080   -1.7439 H   0  0  0  0  0  0  0  0  0  0  0  0
    6.4050   -3.2984   -3.4155 H   0  0  0  0  0  0  0  0  0  0  0  0
    6.1684   -3.8861   -1.7490 H   0  0  0  0  0  0  0  0  0  0  0  0
    8.0333   -2.3338   -0.9730 H   0  0  0  0  0  0  0  0  0  0  0  0
    8.5730   -3.5301   -2.2003 H   0  0  0  0  0  0  0  0  0  0  0  0
    8.3349   -1.7931   -4.0035 H   0  0  0  0  0  0  0  0  0  0  0  0
    7.8053   -0.5879   -2.7670 H   0  0  0  0  0  0  0  0  0  0  0  0
   10.5266   -2.0508   -2.8121 H   0  0  0  0  0  0  0  0  0  0  0  0
    9.9943   -0.8506   -1.5716 H   0  0  0  0  0  0  0  0  0  0  0  0
   10.2971   -0.3009   -4.6016 H   0  0  0  0  0  0  0  0  0  0  0  0
    9.7660    0.8979   -3.3619 H   0  0  0  0  0  0  0  0  0  0  0  0
   12.1744    1.1644   -3.9000 H   0  0  0  0  0  0  0  0  0  0  0  0
   11.9620    0.6555   -2.1818 H   0  0  0  0  0  0  0  0  0  0  0  0
   12.4952   -0.5474   -3.4280 H   0  0  0  0  0  0  0  0  0  0  0  0
    6.1254   -2.9806    0.3478 H   0  0  0  0  0  0  0  0  0  0  0  0
    5.3138   -2.1354    2.4596 H   0  0  0  0  0  0  0  0  0  0  0  0
    4.6769   -1.0430    4.3290 H   0  0  0  0  0  0  0  0  0  0  0  0
    3.3509    0.0272    4.8535 H   0  0  0  0  0  0  0  0  0  0  0  0
    2.6493   -2.3315    5.0207 H   0  0  0  0  0  0  0  0  0  0  0  0
    3.0019   -2.6052    3.2809 H   0  0  0  0  0  0  0  0  0  0  0  0
    1.2620   -0.9333    2.6354 H   0  0  0  0  0  0  0  0  0  0  0  0
    0.9337   -0.5817    4.3754 H   0  0  0  0  0  0  0  0  0  0  0  0
    0.2053   -2.9401    4.7346 H   0  0  0  0  0  0  0  0  0  0  0  0
    0.5855   -3.3342    3.0154 H   0  0  0  0  0  0  0  0  0  0  0  0
   -1.0969   -1.6172    2.2664 H   0  0  0  0  0  0  0  0  0  0  0  0
   -1.5006   -1.2664    3.9866 H   0  0  0  0  0  0  0  0  0  0  0  0
   -2.2430   -3.6342    4.3006 H   0  0  0  0  0  0  0  0  0  0  0  0
   -1.8255   -3.9963    2.5754 H   0  0  0  0  0  0  0  0  0  0  0  0
   -3.1431   -2.8258    2.9607 H   0  0  0  0  0  0  0  0  0  0  0  0
    1.7657    0.6386   -1.2058 H   0  0  0  0  0  0  0  0  0  0  0  0
    0.1471    2.4352   -1.1069 H   0  0  0  0  0  0  0  0  0  0  0  0
   -2.9316    5.9727   -2.4620 H   0  0  0  0  0  0  0  0  0  0  0  0
   -4.3763    3.9994   -2.2344 H   0  0  0  0  0  0  0  0  0  0  0  0
   -4.8086    1.7916   -1.2535 H   0  0  0  0  0  0  0  0  0  0  0  0
   -6.2947    0.3859    0.6922 H   0  0  0  0  0  0  0  0  0  0  0  0
   -0.6701    7.7234    0.3467 Cu  0  0  0  0  0 15  0  0  0  0  0  0
  1  2  1  0
  2  3  1  0
  3  4  1  0
  4  5  1  0
  5  6  1  0
  6  7  1  0
  7  8  1  0
  8  9  2  0
  9 10  1  0
 10 11  2  0
 11 12  1  0
 12 13  1  0
 13 14  1  0
 14 15  1  0
 15 16  1  0
 16 17  1  0
 17 18  1  0
 11 19  1  0
 19 20  1  0
 20 21  2  0
 21 22  1  0
 22 23  2  0
 23 24  1  0
 24 25  1  0
 25 26  2  0
 26 27  1  0
 26 28  1  0
 28 29  2  0
 29 30  1  0
 30 31  2  0
 31 32  1  0
 32 33  1  0
 33 34  2  0
 34 35  1  0
 35 36  1  0
 36 37  1  0
 37 38  1  0
 38 39  1  0
 39 40  1  0
 40 41  1  0
 41 42  1  0
 35 43  2  0
 43 44  1  0
 44 45  2  0
 45 46  1  0
 46 47  1  0
 47 48  1  0
 48 49  1  0
 49 50  1  0
 50 51  1  0
 51 52  1  0
 32 53  2  0
 53 54  1  0
 54 55  2  0
 24 56  2  0
 56 57  1  0
 56 58  1  0
 58 59  2  0
 59 60  1  0
 60 61  2  0
 19 62  2  0
 62  8  1  0
 61 20  1  0
 60 23  1  0
 55 25  1  0
 55 30  1  0
 45 33  1  0
  1 63  1  0
  1 64  1  0
  1 65  1  0
  2 66  1  0
  2 67  1  0
  3 68  1  0
  3 69  1  0
  4 70  1  0
  4 71  1  0
  5 72  1  0
  5 73  1  0
  6 74  1  0
  6 75  1  0
  9 76  1  0
 10 77  1  0
 13 78  1  0
 13 79  1  0
 14 80  1  0
 14 81  1  0
 15 82  1  0
 15 83  1  0
 16 84  1  0
 16 85  1  0
 17 86  1  0
 17 87  1  0
 18 88  1  0
 18 89  1  0
 18 90  1  0
 21 91  1  0
 22 92  1  0
 28 93  1  0
 29 94  1  0
 31 95  1  0
 34 96  1  0
 37 97  1  0
 37 98  1  0
 38 99  1  0
 38100  1  0
 39101  1  0
 39102  1  0
 40103  1  0
 40104  1  0
 41105  1  0
 41106  1  0
 42107  1  0
 42108  1  0
 42109  1  0
 43110  1  0
 44111  1  0
 47112  1  0
 47113  1  0
 48114  1  0
 48115  1  0
 49116  1  0
 49117  1  0
 50118  1  0
 50119  1  0
 51120  1  0
 51121  1  0
 52122  1  0
 52123  1  0
 52124  1  0
 53125  1  0
 54126  1  0
 58127  1  0
 59128  1  0
 61129  1  0
 62130  1  0
M  CHG  1 131   2
M  END
