
     RDKit          3D

131135  0  0  0  0  0  0  0  0999 V2000
  -11.5916   -0.8679    3.6530 C   0  0  0  0  0  0  0  0  0  0  0  0
  -10.8344   -0.3028    2.4518 C   0  0  0  0  0  0  0  0  0  0  0  0
   -9.4844    0.3201    2.8397 C   0  0  0  0  0  0  0  0  0  0  0  0
   -8.4514   -0.7311    3.2714 C   0  0  0  0  0  0  0  0  0  0  0  0
   -7.0821   -0.0845    3.5189 C   0  0  0  0  0  0  0  0  0  0  0  0
   -6.0438   -1.1125    3.9881 C   0  0  0  0  0  0  0  0  0  0  0  0
   -5.8701   -2.1555    3.0270 O   0  0  0  0  0  0  0  0  0  0  0  0
   -5.2410   -2.0197    1.7788 C   0  0  0  0  0  0  0  0  0  0  0  0
   -5.3341   -3.0829    0.8751 C   0  0  0  0  0  0  0  0  0  0  0  0
   -4.7561   -2.9951   -0.3940 C   0  0  0  0  0  0  0  0  0  0  0  0
   -4.0670   -1.8312   -0.7808 C   0  0  0  0  0  0  0  0  0  0  0  0
   -3.5285   -1.6620   -2.0702 O   0  0  0  0  0  0  0  0  0  0  0  0
   -3.5050   -2.6404   -3.1096 C   0  0  0  0  0  0  0  0  0  0  0  0
   -2.3504   -3.6258   -2.9087 C   0  0  0  0  0  0  0  0  0  0  0  0
   -0.9884   -2.9223   -3.0038 C   0  0  0  0  0  0  0  0  0  0  0  0
    0.1629   -3.9297   -2.8791 C   0  0  0  0  0  0  0  0  0  0  0  0
    1.5409   -3.2508   -2.9263 C   0  0  0  0  0  0  0  0  0  0  0  0
    1.9188   -2.6038   -1.5947 C   0  0  0  0  0  0  0  0  0  0  0  0
   -3.9293   -0.7792    0.1437 C   0  0  0  0  0  0  0  0  0  0  0  0
   -3.1403    0.4118   -0.2181 C   0  0  0  0  0  0  0  0  0  0  0  0
   -3.7874    1.6189   -0.4983 C   0  0  0  0  0  0  0  0  0  0  0  0
   -3.0606    2.7172   -0.9766 C   0  0  0  0  0  0  0  0  0  0  0  0
   -3.7174    3.9265   -1.2553 C   0  0  0  0  0  0  0  0  0  0  0  0
   -3.0028    5.0171   -1.7534 C   0  0  0  0  0  0  0  0  0  0  0  0
   -1.6318    4.9088   -1.9860 C   0  0  0  0  0  0  0  0  0  0  0  0
   -0.9654    3.7118   -1.7172 C   0  0  0  0  0  0  0  0  0  0  0  0
   -1.6638    2.6009   -1.2021 C   0  0  0  0  0  0  0  0  0  0  0  0
   -1.0099    1.3790   -0.9003 C   0  0  0  0  0  0  0  0  0  0  0  0
    0.4432    1.1759   -1.1440 C   0  0  0  0  0  0  0  0  0  0  0  0
    1.3051    1.0703   -0.0371 C   0  0  0  0  0  0  0  0  0  0  0  0
    0.7783    1.1364    1.2506 O   0  0  0  0  0  0  0  0  0  0  0  0
    2.6838    0.8665   -0.2206 C   0  0  0  0  0  0  0  0  0  0  0  0
    3.5985    0.7541    0.9387 C   0  0  0  0  0  0  0  0  0  0  0  0
    4.3587   -0.4137    1.1090 C   0  0  0  0  0  0  0  0  0  0  0  0
    5.2473   -0.5406    2.1808 C   0  0  0  0  0  0  0  0  0  0  0  0
    5.9822   -1.7295    2.2970 O   0  0  0  0  0  0  0  0  0  0  0  0
    6.9489   -1.9850    3.3134 C   0  0  0  0  0  0  0  0  0  0  0  0
    7.5719   -3.3654    3.1060 C   0  0  0  0  0  0  0  0  0  0  0  0
    8.3643   -3.4378    1.7937 C   0  0  0  0  0  0  0  0  0  0  0  0
    9.0045   -4.8191    1.6132 C   0  0  0  0  0  0  0  0  0  0  0  0
    9.7991   -4.8904    0.3041 C   0  0  0  0  0  0  0  0  0  0  0  0
   10.4405   -6.2629    0.1225 C   0  0  0  0  0  0  0  0  0  0  0  0
    5.3755    0.5186    3.0964 C   0  0  0  0  0  0  0  0  0  0  0  0
    4.6321    1.6892    2.9292 C   0  0  0  0  0  0  0  0  0  0  0  0
    3.7452    1.8207    1.8454 C   0  0  0  0  0  0  0  0  0  0  0  0
    3.0120    2.9954    1.6257 O   0  0  0  0  0  0  0  0  0  0  0  0
    3.1984    4.2209    2.3256 C   0  0  0  0  0  0  0  0  0  0  0  0
    2.3238    5.3078    1.6944 C   0  0  0  0  0  0  0  0  0  0  0  0
    2.8635    5.8248    0.3483 C   0  0  0  0  0  0  0  0  0  0  0  0
    2.9165    4.7392   -0.7392 C   0  0  0  0  0  0  0  0  0  0  0  0
    3.0867    5.3530   -2.1331 C   0  0  0  0  0  0  0  0  0  0  0  0
    3.1536    4.2720   -3.2087 C   0  0  0  0  0  0  0  0  0  0  0  0
    3.1984    0.7406   -1.5163 C   0  0  0  0  0  0  0  0  0  0  0  0
    2.3505    0.7902   -2.6291 C   0  0  0  0  0  0  0  0  0  0  0  0
    2.8755    0.6119   -3.9189 C   0  0  0  0  0  0  0  0  0  0  0  0
    2.0315    0.6234   -5.0297 C   0  0  0  0  0  0  0  0  0  0  0  0
    0.6595    0.8102   -4.8648 C   0  0  0  0  0  0  0  0  0  0  0  0
    0.1226    0.9966   -3.5893 C   0  0  0  0  0  0  0  0  0  0  0  0
    0.9591    1.0005   -2.4525 C   0  0  0  0  0  0  0  0  0  0  0  0
   -1.7504    0.3100   -0.3703 C   0  0  0  0  0  0  0  0  0  0  0  0
   -1.0983   -0.8601    0.0115 O   0  0  0  0  0  0  0  0  0  0  0  0
   -4.5215   -0.8680    1.4107 C   0  0  0  0  0  0  0  0  0  0  0  0
  -12.6049   -1.1894    3.3320 H   0  0  0  0  0  0  0  0  0  0  0  0
  -11.0654   -1.7518    4.0692 H   0  0  0  0  0  0  0  0  0  0  0  0
  -11.7004   -0.0947    4.4429 H   0  0  0  0  0  0  0  0  0  0  0  0
  -10.6831   -1.1040    1.6959 H   0  0  0  0  0  0  0  0  0  0  0  0
  -11.4627    0.4857    1.9835 H   0  0  0  0  0  0  0  0  0  0  0  0
   -9.0928    0.8664    1.9535 H   0  0  0  0  0  0  0  0  0  0  0  0
   -9.6331    1.0625    3.6545 H   0  0  0  0  0  0  0  0  0  0  0  0
   -8.3574   -1.5011    2.4747 H   0  0  0  0  0  0  0  0  0  0  0  0
   -8.7897   -1.2260    4.2068 H   0  0  0  0  0  0  0  0  0  0  0  0
   -7.1806    0.6982    4.3026 H   0  0  0  0  0  0  0  0  0  0  0  0
   -6.7303    0.4090    2.5883 H   0  0  0  0  0  0  0  0  0  0  0  0
   -6.3924   -1.5677    4.9396 H   0  0  0  0  0  0  0  0  0  0  0  0
   -5.0739   -0.6169    4.2044 H   0  0  0  0  0  0  0  0  0  0  0  0
   -5.8731   -3.9799    1.1538 H   0  0  0  0  0  0  0  0  0  0  0  0
   -4.8636   -3.8348   -1.0648 H   0  0  0  0  0  0  0  0  0  0  0  0
   -4.4759   -3.1745   -3.1749 H   0  0  0  0  0  0  0  0  0  0  0  0
   -3.3674   -2.1167   -4.0796 H   0  0  0  0  0  0  0  0  0  0  0  0
   -2.4508   -4.1199   -1.9183 H   0  0  0  0  0  0  0  0  0  0  0  0
   -2.4162   -4.4094   -3.6947 H   0  0  0  0  0  0  0  0  0  0  0  0
   -0.9143   -2.1660   -2.1978 H   0  0  0  0  0  0  0  0  0  0  0  0
   -0.9085   -2.3971   -3.9812 H   0  0  0  0  0  0  0  0  0  0  0  0
    0.0981   -4.6453   -3.7277 H   0  0  0  0  0  0  0  0  0  0  0  0
    0.0605   -4.5151   -1.9385 H   0  0  0  0  0  0  0  0  0  0  0  0
    1.5705   -2.4874   -3.7344 H   0  0  0  0  0  0  0  0  0  0  0  0
    2.3063   -4.0208   -3.1642 H   0  0  0  0  0  0  0  0  0  0  0  0
    1.2223   -1.7786   -1.3456 H   0  0  0  0  0  0  0  0  0  0  0  0
    2.9450   -2.1873   -1.6674 H   0  0  0  0  0  0  0  0  0  0  0  0
    1.9024   -3.3559   -0.7779 H   0  0  0  0  0  0  0  0  0  0  0  0
   -4.8620    1.6909   -0.3688 H   0  0  0  0  0  0  0  0  0  0  0  0
   -4.7833    4.0278   -1.0881 H   0  0  0  0  0  0  0  0  0  0  0  0
   -3.5142    5.9475   -1.9642 H   0  0  0  0  0  0  0  0  0  0  0  0
   -1.0822    5.7551   -2.3777 H   0  0  0  0  0  0  0  0  0  0  0  0
    0.0923    3.6621   -1.9220 H   0  0  0  0  0  0  0  0  0  0  0  0
    4.2580   -1.2323    0.4068 H   0  0  0  0  0  0  0  0  0  0  0  0
    6.4541   -1.9610    4.3083 H   0  0  0  0  0  0  0  0  0  0  0  0
    7.7438   -1.2080    3.2862 H   0  0  0  0  0  0  0  0  0  0  0  0
    6.7657   -4.1316    3.1024 H   0  0  0  0  0  0  0  0  0  0  0  0
    8.2512   -3.5796    3.9600 H   0  0  0  0  0  0  0  0  0  0  0  0
    9.1614   -2.6617    1.8020 H   0  0  0  0  0  0  0  0  0  0  0  0
    7.6836   -3.2358    0.9376 H   0  0  0  0  0  0  0  0  0  0  0  0
    9.6864   -5.0235    2.4683 H   0  0  0  0  0  0  0  0  0  0  0  0
    8.2078   -5.5954    1.6027 H   0  0  0  0  0  0  0  0  0  0  0  0
    9.1231   -4.6928   -0.5564 H   0  0  0  0  0  0  0  0  0  0  0  0
   10.5989   -4.1180    0.3080 H   0  0  0  0  0  0  0  0  0  0  0  0
   11.1409   -6.4751    0.9582 H   0  0  0  0  0  0  0  0  0  0  0  0
   11.0089   -6.2847   -0.8311 H   0  0  0  0  0  0  0  0  0  0  0  0
    9.6594   -7.0521    0.0887 H   0  0  0  0  0  0  0  0  0  0  0  0
    6.0503    0.4494    3.9388 H   0  0  0  0  0  0  0  0  0  0  0  0
    4.7564    2.4890    3.6464 H   0  0  0  0  0  0  0  0  0  0  0  0
    2.8956    4.0838    3.3862 H   0  0  0  0  0  0  0  0  0  0  0  0
    4.2670    4.5262    2.2898 H   0  0  0  0  0  0  0  0  0  0  0  0
    2.2737    6.1671    2.3976 H   0  0  0  0  0  0  0  0  0  0  0  0
    1.2872    4.9254    1.5645 H   0  0  0  0  0  0  0  0  0  0  0  0
    2.1936    6.6474    0.0145 H   0  0  0  0  0  0  0  0  0  0  0  0
    3.8783    6.2563    0.4917 H   0  0  0  0  0  0  0  0  0  0  0  0
    3.7755    4.0621   -0.5408 H   0  0  0  0  0  0  0  0  0  0  0  0
    1.9836    4.1394   -0.7126 H   0  0  0  0  0  0  0  0  0  0  0  0
    4.0230    5.9520   -2.1646 H   0  0  0  0  0  0  0  0  0  0  0  0
    2.2290    6.0245   -2.3555 H   0  0  0  0  0  0  0  0  0  0  0  0
    2.2038    3.6984   -3.2380 H   0  0  0  0  0  0  0  0  0  0  0  0
    3.3102    4.7441   -4.2012 H   0  0  0  0  0  0  0  0  0  0  0  0
    3.9967    3.5768   -3.0088 H   0  0  0  0  0  0  0  0  0  0  0  0
    4.2625    0.5824   -1.6542 H   0  0  0  0  0  0  0  0  0  0  0  0
    3.9371    0.4543   -4.0666 H   0  0  0  0  0  0  0  0  0  0  0  0
    2.4414    0.4792   -6.0209 H   0  0  0  0  0  0  0  0  0  0  0  0
    0.0077    0.8074   -5.7288 H   0  0  0  0  0  0  0  0  0  0  0  0
   -0.9479    1.1261   -3.5028 H   0  0  0  0  0  0  0  0  0  0  0  0
   -4.4015   -0.0442    2.1007 H   0  0  0  0  0  0  0  0  0  0  0  0
   -0.2027   -0.4977    1.7199 Cu  0  0  0  0  0 15  0  0  0  0  0  0
  1  2  1  0
  2  3  1  0
  3  4  1  0
  4  5  1  0
  5  6  1  0
  6  7  1  0
  7  8  1  0
  8  9  2  0
  9 10  1  0
 10 11  2  0
 11 12  1  0
 12 13  1  0
 13 14  1  0
 14 15  1  0
 15 16  1  0
 16 17  1  0
 17 18  1  0
 11 19  1  0
 19 20  1  0
 20 21  2  0
 21 22  1  0
 22 23  2  0
 23 24  1  0
 24 25  2  0
 25 26  1  0
 26 27  2  0
 27 28  1  0
 28 29  1  0
 29 30  2  0
 30 31  1  0
 30 32  1  0
 32 33  1  0
 33 34  2  0
 34 35  1  0
 35 36  1  0
 36 37  1  0
 37 38  1  0
 38 39  1  0
 39 40  1  0
 40 41  1  0
 41 42  1  0
 35 43  2  0
 43 44  1  0
 44 45  2  0
 45 46  1  0
 46 47  1  0
 47 48  1  0
 48 49  1  0
 49 50  1  0
 50 51  1  0
 51 52  1  0
 32 53  2  0
 53 54  1  0
 54 55  2  0
 55 56  1  0
 56 57  2  0
 57 58  1  0
 58 59  2  0
 28 60  2  0
 60 61  1  0
 19 62  2  0
 62  8  1  0
 60 20  1  0
 27 22  1  0
 59 29  1  0
 45 33  1  0
 59 54  1  0
  1 63  1  0
  1 64  1  0
  1 65  1  0
  2 66  1  0
  2 67  1  0
  3 68  1  0
  3 69  1  0
  4 70  1  0
  4 71  1  0
  5 72  1  0
  5 73  1  0
  6 74  1  0
  6 75  1  0
  9 76  1  0
 10 77  1  0
 13 78  1  0
 13 79  1  0
 14 80  1  0
 14 81  1  0
 15 82  1  0
 15 83  1  0
 16 84  1  0
 16 85  1  0
 17 86  1  0
 17 87  1  0
 18 88  1  0
 18 89  1  0
 18 90  1  0
 21 91  1  0
 23 92  1  0
 24 93  1  0
 25 94  1  0
 26 95  1  0
 34 96  1  0
 37 97  1  0
 37 98  1  0
 38 99  1  0
 38100  1  0
 39101  1  0
 39102  1  0
 40103  1  0
 40104  1  0
 41105  1  0
 41106  1  0
 42107  1  0
 42108  1  0
 42109  1  0
 43110  1  0
 44111  1  0
 47112  1  0
 47113  1  0
 48114  1  0
 48115  1  0
 49116  1  0
 49117  1  0
 50118  1  0
 50119  1  0
 51120  1  0
 51121  1  0
 52122  1  0
 52123  1  0
 52124  1  0
 53125  1  0
 55126  1  0
 56127  1  0
 57128  1  0
 58129  1  0
 62130  1  0
M  CHG  1 131   2
M  END
